/*---------------------------------------------------------------------------*\
  =========                 |
  \\      /  F ield         | OpenFOAM: The Open Source CFD Toolbox
   \\    /   O peration     | Website:  https://openfoam.org
    \\  /    A nd           | Version:  7
     \\/     M anipulation  |
\*---------------------------------------------------------------------------*/
Build  : 7-1ff648926f77
Exec   : decomposePar
Date   : Jul 13 2024
Time   : 16:52:48
Host   : "5ba37f71a725"
PID    : 102533
I/O    : uncollated
Case   : /home/openfoam/TurbFOAM-7-Cases/2D-Seperated-Flow-Cases-Final/NASA-Hump-Final/00Baseline
nProcs : 1
sigFpe : Enabling floating point exception trapping (FOAM_SIGFPE).
fileModificationChecking : Monitoring run-time modified files using timeStampMaster (fileModificationSkew 10)
allowSystemOperations : Allowing user-supplied system call operations

// * * * * * * * * * * * * * * * * * * * * * * * * * * * * * * * * * * * * * //
Create time

Using #calcEntry at line 18 in file "/home/openfoam/TurbFOAM-7-Cases/2D-Seperated-Flow-Cases-Final/NASA-Hump-Final/00Baseline/system/controlDict.functions.convergenceProbes"
Using #codeStream with "/home/openfoam/TurbFOAM-7-Cases/2D-Seperated-Flow-Cases-Final/NASA-Hump-Final/00Baseline/dynamicCode/platforms/linux64GccDPInt32Opt/lib/libcodeStream_75a4f5b4ff671df38e5ba8edfbac81f9168c7d9b.so"
Using #calcEntry at line 19 in file "/home/openfoam/TurbFOAM-7-Cases/2D-Seperated-Flow-Cases-Final/NASA-Hump-Final/00Baseline/system/controlDict.functions.convergenceProbes"
Using #codeStream with "/home/openfoam/TurbFOAM-7-Cases/2D-Seperated-Flow-Cases-Final/NASA-Hump-Final/00Baseline/dynamicCode/platforms/linux64GccDPInt32Opt/lib/libcodeStream_a247f6ff1f11efb20133ca2dbfdb37ba69ba54a5.so"
Using #calcEntry at line 20 in file "/home/openfoam/TurbFOAM-7-Cases/2D-Seperated-Flow-Cases-Final/NASA-Hump-Final/00Baseline/system/controlDict.functions.convergenceProbes"
Using #codeStream with "/home/openfoam/TurbFOAM-7-Cases/2D-Seperated-Flow-Cases-Final/NASA-Hump-Final/00Baseline/dynamicCode/platforms/linux64GccDPInt32Opt/lib/libcodeStream_77a8649a24954b9328c5589cc79e5e0de849c466.so"
Using #calcEntry at line 21 in file "/home/openfoam/TurbFOAM-7-Cases/2D-Seperated-Flow-Cases-Final/NASA-Hump-Final/00Baseline/system/controlDict.functions.convergenceProbes"
Using #codeStream with "/home/openfoam/TurbFOAM-7-Cases/2D-Seperated-Flow-Cases-Final/NASA-Hump-Final/00Baseline/dynamicCode/platforms/linux64GccDPInt32Opt/lib/libcodeStream_232a85057e1ed74ae20ebcfa85e596b4eaf035d0.so"
Using #calcEntry at line 22 in file "/home/openfoam/TurbFOAM-7-Cases/2D-Seperated-Flow-Cases-Final/NASA-Hump-Final/00Baseline/system/controlDict.functions.convergenceProbes"
Using #codeStream with "/home/openfoam/TurbFOAM-7-Cases/2D-Seperated-Flow-Cases-Final/NASA-Hump-Final/00Baseline/dynamicCode/platforms/linux64GccDPInt32Opt/lib/libcodeStream_769f7a7007a4c2224a4b123ed1f3869c5af3c189.so"
Using #calcEntry at line 23 in file "/home/openfoam/TurbFOAM-7-Cases/2D-Seperated-Flow-Cases-Final/NASA-Hump-Final/00Baseline/system/controlDict.functions.convergenceProbes"
Using #codeStream with "/home/openfoam/TurbFOAM-7-Cases/2D-Seperated-Flow-Cases-Final/NASA-Hump-Final/00Baseline/dynamicCode/platforms/linux64GccDPInt32Opt/lib/libcodeStream_feb0295de68af9673848f5d3725de5945e497247.so"
Using #calcEntry at line 24 in file "/home/openfoam/TurbFOAM-7-Cases/2D-Seperated-Flow-Cases-Final/NASA-Hump-Final/00Baseline/system/controlDict.functions.convergenceProbes"
Using #codeStream with "/home/openfoam/TurbFOAM-7-Cases/2D-Seperated-Flow-Cases-Final/NASA-Hump-Final/00Baseline/dynamicCode/platforms/linux64GccDPInt32Opt/lib/libcodeStream_e87a4fde7807eb94a4592dd1a6cc678bb7867694.so"
Using #calcEntry at line 25 in file "/home/openfoam/TurbFOAM-7-Cases/2D-Seperated-Flow-Cases-Final/NASA-Hump-Final/00Baseline/system/controlDict.functions.convergenceProbes"
Using #codeStream with "/home/openfoam/TurbFOAM-7-Cases/2D-Seperated-Flow-Cases-Final/NASA-Hump-Final/00Baseline/dynamicCode/platforms/linux64GccDPInt32Opt/lib/libcodeStream_718a18ea8ad2f783ae8b52e7a11ee7eaf8c59f54.so"
Using #calcEntry at line 5 in file "/home/openfoam/TurbFOAM-7-Cases/2D-Seperated-Flow-Cases-Final/NASA-Hump-Final/00Baseline/system/controlDict.functions.convergenceProbes"
Using #codeStream with "/home/openfoam/TurbFOAM-7-Cases/2D-Seperated-Flow-Cases-Final/NASA-Hump-Final/00Baseline/dynamicCode/platforms/linux64GccDPInt32Opt/lib/libcodeStream_d6d37a5775cdea6aea37a5670db29c5e850011c8.so"
Using #calcEntry at line 8 in file "/home/openfoam/TurbFOAM-7-Cases/2D-Seperated-Flow-Cases-Final/NASA-Hump-Final/00Baseline/system/controlDict.functions.convergenceProbes"
Using #codeStream with "/home/openfoam/TurbFOAM-7-Cases/2D-Seperated-Flow-Cases-Final/NASA-Hump-Final/00Baseline/dynamicCode/platforms/linux64GccDPInt32Opt/lib/libcodeStream_5064c54646fb52c8b01562e4b46b6f0f6f9b146d.so"
Using #calcEntry at line 9 in file "/home/openfoam/TurbFOAM-7-Cases/2D-Seperated-Flow-Cases-Final/NASA-Hump-Final/00Baseline/system/controlDict.functions.convergenceProbes"
Using #codeStream with "/home/openfoam/TurbFOAM-7-Cases/2D-Seperated-Flow-Cases-Final/NASA-Hump-Final/00Baseline/dynamicCode/platforms/linux64GccDPInt32Opt/lib/libcodeStream_c12e4b926a933945fdd24a75f21bea16f524b31d.so"
Using #calcEntry at line 12 in file "/home/openfoam/TurbFOAM-7-Cases/2D-Seperated-Flow-Cases-Final/NASA-Hump-Final/00Baseline/system/controlDict.functions.convergenceProbes"
Using #codeStream with "/home/openfoam/TurbFOAM-7-Cases/2D-Seperated-Flow-Cases-Final/NASA-Hump-Final/00Baseline/dynamicCode/platforms/linux64GccDPInt32Opt/lib/libcodeStream_a76d798187388beb9c9164b04f96d59d9682a40f.so"
Using #calcEntry at line 13 in file "/home/openfoam/TurbFOAM-7-Cases/2D-Seperated-Flow-Cases-Final/NASA-Hump-Final/00Baseline/system/controlDict.functions.convergenceProbes"
Using #codeStream with "/home/openfoam/TurbFOAM-7-Cases/2D-Seperated-Flow-Cases-Final/NASA-Hump-Final/00Baseline/dynamicCode/platforms/linux64GccDPInt32Opt/lib/libcodeStream_b5a911e63cf1e3a87e11178bd86b8cba21330a81.so"
Using #calcEntry at line 16 in file "/home/openfoam/TurbFOAM-7-Cases/2D-Seperated-Flow-Cases-Final/NASA-Hump-Final/00Baseline/system/controlDict.functions.convergenceProbes"
Using #codeStream with "/home/openfoam/TurbFOAM-7-Cases/2D-Seperated-Flow-Cases-Final/NASA-Hump-Final/00Baseline/dynamicCode/platforms/linux64GccDPInt32Opt/lib/libcodeStream_1eb51ba167c6bdb0c00559636365e5dc16584c4c.so"
Using #calcEntry at line 17 in file "/home/openfoam/TurbFOAM-7-Cases/2D-Seperated-Flow-Cases-Final/NASA-Hump-Final/00Baseline/system/controlDict.functions.convergenceProbes"
Using #codeStream with "/home/openfoam/TurbFOAM-7-Cases/2D-Seperated-Flow-Cases-Final/NASA-Hump-Final/00Baseline/dynamicCode/platforms/linux64GccDPInt32Opt/lib/libcodeStream_994bdbbb6e4c67657c3e5a8effb50315a8843cd0.so"
Using #calcEntry at line 20 in file "/home/openfoam/TurbFOAM-7-Cases/2D-Seperated-Flow-Cases-Final/NASA-Hump-Final/00Baseline/system/controlDict.functions.convergenceProbes"
Using #codeStream with "/home/openfoam/TurbFOAM-7-Cases/2D-Seperated-Flow-Cases-Final/NASA-Hump-Final/00Baseline/dynamicCode/platforms/linux64GccDPInt32Opt/lib/libcodeStream_1ab17a8d0f1bf248ca0884edcfb9736a4b3df948.so"
Using #calcEntry at line 21 in file "/home/openfoam/TurbFOAM-7-Cases/2D-Seperated-Flow-Cases-Final/NASA-Hump-Final/00Baseline/system/controlDict.functions.convergenceProbes"
Using #codeStream with "/home/openfoam/TurbFOAM-7-Cases/2D-Seperated-Flow-Cases-Final/NASA-Hump-Final/00Baseline/dynamicCode/platforms/linux64GccDPInt32Opt/lib/libcodeStream_dcf0226655645c11778413395c27589c48828be1.so"
Using #calcEntry at line 18 in file "/home/openfoam/TurbFOAM-7-Cases/2D-Seperated-Flow-Cases-Final/NASA-Hump-Final/00Baseline/system/controlDict.functions.singleGraph_x0.8c"
Using #calcEntry at line 19 in file "/home/openfoam/TurbFOAM-7-Cases/2D-Seperated-Flow-Cases-Final/NASA-Hump-Final/00Baseline/system/controlDict.functions.singleGraph_x0.8c"
Using #calcEntry at line 20 in file "/home/openfoam/TurbFOAM-7-Cases/2D-Seperated-Flow-Cases-Final/NASA-Hump-Final/00Baseline/system/controlDict.functions.singleGraph_x0.8c"
Using #calcEntry at line 21 in file "/home/openfoam/TurbFOAM-7-Cases/2D-Seperated-Flow-Cases-Final/NASA-Hump-Final/00Baseline/system/controlDict.functions.singleGraph_x0.8c"
Using #calcEntry at line 22 in file "/home/openfoam/TurbFOAM-7-Cases/2D-Seperated-Flow-Cases-Final/NASA-Hump-Final/00Baseline/system/controlDict.functions.singleGraph_x0.8c"
Using #calcEntry at line 23 in file "/home/openfoam/TurbFOAM-7-Cases/2D-Seperated-Flow-Cases-Final/NASA-Hump-Final/00Baseline/system/controlDict.functions.singleGraph_x0.8c"
Using #calcEntry at line 24 in file "/home/openfoam/TurbFOAM-7-Cases/2D-Seperated-Flow-Cases-Final/NASA-Hump-Final/00Baseline/system/controlDict.functions.singleGraph_x0.8c"
Using #calcEntry at line 25 in file "/home/openfoam/TurbFOAM-7-Cases/2D-Seperated-Flow-Cases-Final/NASA-Hump-Final/00Baseline/system/controlDict.functions.singleGraph_x0.8c"
Using #calcEntry at line 18 in file "/home/openfoam/TurbFOAM-7-Cases/2D-Seperated-Flow-Cases-Final/NASA-Hump-Final/00Baseline/system/controlDict.functions.singleGraph_x0.8c"
Using #calcEntry at line 21 in file "/home/openfoam/TurbFOAM-7-Cases/2D-Seperated-Flow-Cases-Final/NASA-Hump-Final/00Baseline/system/controlDict.functions.singleGraph_x0.8c"
Using #codeStream with "/home/openfoam/TurbFOAM-7-Cases/2D-Seperated-Flow-Cases-Final/NASA-Hump-Final/00Baseline/dynamicCode/platforms/linux64GccDPInt32Opt/lib/libcodeStream_39a58a17a0499c4ff35f1b777578157ffc2e326d.so"
Using #calcEntry at line 18 in file "/home/openfoam/TurbFOAM-7-Cases/2D-Seperated-Flow-Cases-Final/NASA-Hump-Final/00Baseline/system/controlDict.functions.singleGraph_x0.9c"
Using #calcEntry at line 19 in file "/home/openfoam/TurbFOAM-7-Cases/2D-Seperated-Flow-Cases-Final/NASA-Hump-Final/00Baseline/system/controlDict.functions.singleGraph_x0.9c"
Using #calcEntry at line 20 in file "/home/openfoam/TurbFOAM-7-Cases/2D-Seperated-Flow-Cases-Final/NASA-Hump-Final/00Baseline/system/controlDict.functions.singleGraph_x0.9c"
Using #calcEntry at line 21 in file "/home/openfoam/TurbFOAM-7-Cases/2D-Seperated-Flow-Cases-Final/NASA-Hump-Final/00Baseline/system/controlDict.functions.singleGraph_x0.9c"
Using #calcEntry at line 22 in file "/home/openfoam/TurbFOAM-7-Cases/2D-Seperated-Flow-Cases-Final/NASA-Hump-Final/00Baseline/system/controlDict.functions.singleGraph_x0.9c"
Using #calcEntry at line 23 in file "/home/openfoam/TurbFOAM-7-Cases/2D-Seperated-Flow-Cases-Final/NASA-Hump-Final/00Baseline/system/controlDict.functions.singleGraph_x0.9c"
Using #calcEntry at line 24 in file "/home/openfoam/TurbFOAM-7-Cases/2D-Seperated-Flow-Cases-Final/NASA-Hump-Final/00Baseline/system/controlDict.functions.singleGraph_x0.9c"
Using #calcEntry at line 25 in file "/home/openfoam/TurbFOAM-7-Cases/2D-Seperated-Flow-Cases-Final/NASA-Hump-Final/00Baseline/system/controlDict.functions.singleGraph_x0.9c"
Using #calcEntry at line 18 in file "/home/openfoam/TurbFOAM-7-Cases/2D-Seperated-Flow-Cases-Final/NASA-Hump-Final/00Baseline/system/controlDict.functions.singleGraph_x0.9c"
Using #calcEntry at line 21 in file "/home/openfoam/TurbFOAM-7-Cases/2D-Seperated-Flow-Cases-Final/NASA-Hump-Final/00Baseline/system/controlDict.functions.singleGraph_x0.9c"
Using #codeStream with "/home/openfoam/TurbFOAM-7-Cases/2D-Seperated-Flow-Cases-Final/NASA-Hump-Final/00Baseline/dynamicCode/platforms/linux64GccDPInt32Opt/lib/libcodeStream_872a6ba07ef1c58dbabd9230baa149db25a68a9d.so"
Using #calcEntry at line 18 in file "/home/openfoam/TurbFOAM-7-Cases/2D-Seperated-Flow-Cases-Final/NASA-Hump-Final/00Baseline/system/controlDict.functions.singleGraph_x0.65c"
Using #calcEntry at line 19 in file "/home/openfoam/TurbFOAM-7-Cases/2D-Seperated-Flow-Cases-Final/NASA-Hump-Final/00Baseline/system/controlDict.functions.singleGraph_x0.65c"
Using #calcEntry at line 20 in file "/home/openfoam/TurbFOAM-7-Cases/2D-Seperated-Flow-Cases-Final/NASA-Hump-Final/00Baseline/system/controlDict.functions.singleGraph_x0.65c"
Using #calcEntry at line 21 in file "/home/openfoam/TurbFOAM-7-Cases/2D-Seperated-Flow-Cases-Final/NASA-Hump-Final/00Baseline/system/controlDict.functions.singleGraph_x0.65c"
Using #calcEntry at line 22 in file "/home/openfoam/TurbFOAM-7-Cases/2D-Seperated-Flow-Cases-Final/NASA-Hump-Final/00Baseline/system/controlDict.functions.singleGraph_x0.65c"
Using #calcEntry at line 23 in file "/home/openfoam/TurbFOAM-7-Cases/2D-Seperated-Flow-Cases-Final/NASA-Hump-Final/00Baseline/system/controlDict.functions.singleGraph_x0.65c"
Using #calcEntry at line 24 in file "/home/openfoam/TurbFOAM-7-Cases/2D-Seperated-Flow-Cases-Final/NASA-Hump-Final/00Baseline/system/controlDict.functions.singleGraph_x0.65c"
Using #calcEntry at line 25 in file "/home/openfoam/TurbFOAM-7-Cases/2D-Seperated-Flow-Cases-Final/NASA-Hump-Final/00Baseline/system/controlDict.functions.singleGraph_x0.65c"
Using #calcEntry at line 18 in file "/home/openfoam/TurbFOAM-7-Cases/2D-Seperated-Flow-Cases-Final/NASA-Hump-Final/00Baseline/system/controlDict.functions.singleGraph_x0.65c"
Using #calcEntry at line 21 in file "/home/openfoam/TurbFOAM-7-Cases/2D-Seperated-Flow-Cases-Final/NASA-Hump-Final/00Baseline/system/controlDict.functions.singleGraph_x0.65c"
Using #codeStream with "/home/openfoam/TurbFOAM-7-Cases/2D-Seperated-Flow-Cases-Final/NASA-Hump-Final/00Baseline/dynamicCode/platforms/linux64GccDPInt32Opt/lib/libcodeStream_3160ac7836ec37a7f308c90905f407e296494e0d.so"
Using #calcEntry at line 18 in file "/home/openfoam/TurbFOAM-7-Cases/2D-Seperated-Flow-Cases-Final/NASA-Hump-Final/00Baseline/system/controlDict.functions.singleGraph_x1.0c"
Using #calcEntry at line 19 in file "/home/openfoam/TurbFOAM-7-Cases/2D-Seperated-Flow-Cases-Final/NASA-Hump-Final/00Baseline/system/controlDict.functions.singleGraph_x1.0c"
Using #calcEntry at line 20 in file "/home/openfoam/TurbFOAM-7-Cases/2D-Seperated-Flow-Cases-Final/NASA-Hump-Final/00Baseline/system/controlDict.functions.singleGraph_x1.0c"
Using #calcEntry at line 21 in file "/home/openfoam/TurbFOAM-7-Cases/2D-Seperated-Flow-Cases-Final/NASA-Hump-Final/00Baseline/system/controlDict.functions.singleGraph_x1.0c"
Using #calcEntry at line 22 in file "/home/openfoam/TurbFOAM-7-Cases/2D-Seperated-Flow-Cases-Final/NASA-Hump-Final/00Baseline/system/controlDict.functions.singleGraph_x1.0c"
Using #calcEntry at line 23 in file "/home/openfoam/TurbFOAM-7-Cases/2D-Seperated-Flow-Cases-Final/NASA-Hump-Final/00Baseline/system/controlDict.functions.singleGraph_x1.0c"
Using #calcEntry at line 24 in file "/home/openfoam/TurbFOAM-7-Cases/2D-Seperated-Flow-Cases-Final/NASA-Hump-Final/00Baseline/system/controlDict.functions.singleGraph_x1.0c"
Using #calcEntry at line 25 in file "/home/openfoam/TurbFOAM-7-Cases/2D-Seperated-Flow-Cases-Final/NASA-Hump-Final/00Baseline/system/controlDict.functions.singleGraph_x1.0c"
Using #calcEntry at line 18 in file "/home/openfoam/TurbFOAM-7-Cases/2D-Seperated-Flow-Cases-Final/NASA-Hump-Final/00Baseline/system/controlDict.functions.singleGraph_x1.0c"
Using #calcEntry at line 21 in file "/home/openfoam/TurbFOAM-7-Cases/2D-Seperated-Flow-Cases-Final/NASA-Hump-Final/00Baseline/system/controlDict.functions.singleGraph_x1.0c"
Using #codeStream with "/home/openfoam/TurbFOAM-7-Cases/2D-Seperated-Flow-Cases-Final/NASA-Hump-Final/00Baseline/dynamicCode/platforms/linux64GccDPInt32Opt/lib/libcodeStream_7beec5688313a72c327e49254bc535d75299778f.so"
Using #calcEntry at line 18 in file "/home/openfoam/TurbFOAM-7-Cases/2D-Seperated-Flow-Cases-Final/NASA-Hump-Final/00Baseline/system/controlDict.functions.singleGraph_x1.1c"
Using #calcEntry at line 19 in file "/home/openfoam/TurbFOAM-7-Cases/2D-Seperated-Flow-Cases-Final/NASA-Hump-Final/00Baseline/system/controlDict.functions.singleGraph_x1.1c"
Using #calcEntry at line 20 in file "/home/openfoam/TurbFOAM-7-Cases/2D-Seperated-Flow-Cases-Final/NASA-Hump-Final/00Baseline/system/controlDict.functions.singleGraph_x1.1c"
Using #calcEntry at line 21 in file "/home/openfoam/TurbFOAM-7-Cases/2D-Seperated-Flow-Cases-Final/NASA-Hump-Final/00Baseline/system/controlDict.functions.singleGraph_x1.1c"
Using #calcEntry at line 22 in file "/home/openfoam/TurbFOAM-7-Cases/2D-Seperated-Flow-Cases-Final/NASA-Hump-Final/00Baseline/system/controlDict.functions.singleGraph_x1.1c"
Using #calcEntry at line 23 in file "/home/openfoam/TurbFOAM-7-Cases/2D-Seperated-Flow-Cases-Final/NASA-Hump-Final/00Baseline/system/controlDict.functions.singleGraph_x1.1c"
Using #calcEntry at line 24 in file "/home/openfoam/TurbFOAM-7-Cases/2D-Seperated-Flow-Cases-Final/NASA-Hump-Final/00Baseline/system/controlDict.functions.singleGraph_x1.1c"
Using #calcEntry at line 25 in file "/home/openfoam/TurbFOAM-7-Cases/2D-Seperated-Flow-Cases-Final/NASA-Hump-Final/00Baseline/system/controlDict.functions.singleGraph_x1.1c"
Using #calcEntry at line 18 in file "/home/openfoam/TurbFOAM-7-Cases/2D-Seperated-Flow-Cases-Final/NASA-Hump-Final/00Baseline/system/controlDict.functions.singleGraph_x1.1c"
Using #calcEntry at line 21 in file "/home/openfoam/TurbFOAM-7-Cases/2D-Seperated-Flow-Cases-Final/NASA-Hump-Final/00Baseline/system/controlDict.functions.singleGraph_x1.1c"
Using #codeStream with "/home/openfoam/TurbFOAM-7-Cases/2D-Seperated-Flow-Cases-Final/NASA-Hump-Final/00Baseline/dynamicCode/platforms/linux64GccDPInt32Opt/lib/libcodeStream_cd3d6e8dddac4fa0cc2d0bb525f17cd3466230b0.so"
Using #calcEntry at line 18 in file "/home/openfoam/TurbFOAM-7-Cases/2D-Seperated-Flow-Cases-Final/NASA-Hump-Final/00Baseline/system/controlDict.functions.singleGraph_x1.2c"
Using #calcEntry at line 19 in file "/home/openfoam/TurbFOAM-7-Cases/2D-Seperated-Flow-Cases-Final/NASA-Hump-Final/00Baseline/system/controlDict.functions.singleGraph_x1.2c"
Using #calcEntry at line 20 in file "/home/openfoam/TurbFOAM-7-Cases/2D-Seperated-Flow-Cases-Final/NASA-Hump-Final/00Baseline/system/controlDict.functions.singleGraph_x1.2c"
Using #calcEntry at line 21 in file "/home/openfoam/TurbFOAM-7-Cases/2D-Seperated-Flow-Cases-Final/NASA-Hump-Final/00Baseline/system/controlDict.functions.singleGraph_x1.2c"
Using #calcEntry at line 22 in file "/home/openfoam/TurbFOAM-7-Cases/2D-Seperated-Flow-Cases-Final/NASA-Hump-Final/00Baseline/system/controlDict.functions.singleGraph_x1.2c"
Using #calcEntry at line 23 in file "/home/openfoam/TurbFOAM-7-Cases/2D-Seperated-Flow-Cases-Final/NASA-Hump-Final/00Baseline/system/controlDict.functions.singleGraph_x1.2c"
Using #calcEntry at line 24 in file "/home/openfoam/TurbFOAM-7-Cases/2D-Seperated-Flow-Cases-Final/NASA-Hump-Final/00Baseline/system/controlDict.functions.singleGraph_x1.2c"
Using #calcEntry at line 25 in file "/home/openfoam/TurbFOAM-7-Cases/2D-Seperated-Flow-Cases-Final/NASA-Hump-Final/00Baseline/system/controlDict.functions.singleGraph_x1.2c"
Using #calcEntry at line 18 in file "/home/openfoam/TurbFOAM-7-Cases/2D-Seperated-Flow-Cases-Final/NASA-Hump-Final/00Baseline/system/controlDict.functions.singleGraph_x1.2c"
Using #calcEntry at line 21 in file "/home/openfoam/TurbFOAM-7-Cases/2D-Seperated-Flow-Cases-Final/NASA-Hump-Final/00Baseline/system/controlDict.functions.singleGraph_x1.2c"
Using #codeStream with "/home/openfoam/TurbFOAM-7-Cases/2D-Seperated-Flow-Cases-Final/NASA-Hump-Final/00Baseline/dynamicCode/platforms/linux64GccDPInt32Opt/lib/libcodeStream_358ccca60f588d37fa48ad54d584688d5fb009a8.so"
Using #calcEntry at line 18 in file "/home/openfoam/TurbFOAM-7-Cases/2D-Seperated-Flow-Cases-Final/NASA-Hump-Final/00Baseline/system/controlDict.functions.singleGraph_x1.3c"
Using #calcEntry at line 19 in file "/home/openfoam/TurbFOAM-7-Cases/2D-Seperated-Flow-Cases-Final/NASA-Hump-Final/00Baseline/system/controlDict.functions.singleGraph_x1.3c"
Using #calcEntry at line 20 in file "/home/openfoam/TurbFOAM-7-Cases/2D-Seperated-Flow-Cases-Final/NASA-Hump-Final/00Baseline/system/controlDict.functions.singleGraph_x1.3c"
Using #calcEntry at line 21 in file "/home/openfoam/TurbFOAM-7-Cases/2D-Seperated-Flow-Cases-Final/NASA-Hump-Final/00Baseline/system/controlDict.functions.singleGraph_x1.3c"
Using #calcEntry at line 22 in file "/home/openfoam/TurbFOAM-7-Cases/2D-Seperated-Flow-Cases-Final/NASA-Hump-Final/00Baseline/system/controlDict.functions.singleGraph_x1.3c"
Using #calcEntry at line 23 in file "/home/openfoam/TurbFOAM-7-Cases/2D-Seperated-Flow-Cases-Final/NASA-Hump-Final/00Baseline/system/controlDict.functions.singleGraph_x1.3c"
Using #calcEntry at line 24 in file "/home/openfoam/TurbFOAM-7-Cases/2D-Seperated-Flow-Cases-Final/NASA-Hump-Final/00Baseline/system/controlDict.functions.singleGraph_x1.3c"
Using #calcEntry at line 25 in file "/home/openfoam/TurbFOAM-7-Cases/2D-Seperated-Flow-Cases-Final/NASA-Hump-Final/00Baseline/system/controlDict.functions.singleGraph_x1.3c"
Using #calcEntry at line 18 in file "/home/openfoam/TurbFOAM-7-Cases/2D-Seperated-Flow-Cases-Final/NASA-Hump-Final/00Baseline/system/controlDict.functions.singleGraph_x1.3c"
Using #calcEntry at line 21 in file "/home/openfoam/TurbFOAM-7-Cases/2D-Seperated-Flow-Cases-Final/NASA-Hump-Final/00Baseline/system/controlDict.functions.singleGraph_x1.3c"
Using #codeStream with "/home/openfoam/TurbFOAM-7-Cases/2D-Seperated-Flow-Cases-Final/NASA-Hump-Final/00Baseline/dynamicCode/platforms/linux64GccDPInt32Opt/lib/libcodeStream_4ac9cb5ff56d4972a9ef5d63a8e508fd315bd95e.so"


Decomposing mesh region0

Create mesh

Calculating distribution of cells
 Foam::decompositionMethod::New 
{
    numberOfSubdomains 4;
    method          scotch;
}

Selecting decompositionMethod scotch

Finished decomposition in 0.03 s

Calculating original mesh data

Distributing cells to processors

Distributing faces to processors

Distributing points to processors

Constructing processor meshes
Using #calcEntry at line 18 in file "/home/openfoam/TurbFOAM-7-Cases/2D-Seperated-Flow-Cases-Final/NASA-Hump-Final/00Baseline/system/controlDict.functions.convergenceProbes"
Using #codeStream with "/home/openfoam/TurbFOAM-7-Cases/2D-Seperated-Flow-Cases-Final/NASA-Hump-Final/00Baseline/dynamicCode/platforms/linux64GccDPInt32Opt/lib/libcodeStream_75a4f5b4ff671df38e5ba8edfbac81f9168c7d9b.so"
Using #calcEntry at line 19 in file "/home/openfoam/TurbFOAM-7-Cases/2D-Seperated-Flow-Cases-Final/NASA-Hump-Final/00Baseline/system/controlDict.functions.convergenceProbes"
Using #codeStream with "/home/openfoam/TurbFOAM-7-Cases/2D-Seperated-Flow-Cases-Final/NASA-Hump-Final/00Baseline/dynamicCode/platforms/linux64GccDPInt32Opt/lib/libcodeStream_a247f6ff1f11efb20133ca2dbfdb37ba69ba54a5.so"
Using #calcEntry at line 20 in file "/home/openfoam/TurbFOAM-7-Cases/2D-Seperated-Flow-Cases-Final/NASA-Hump-Final/00Baseline/system/controlDict.functions.convergenceProbes"
Using #codeStream with "/home/openfoam/TurbFOAM-7-Cases/2D-Seperated-Flow-Cases-Final/NASA-Hump-Final/00Baseline/dynamicCode/platforms/linux64GccDPInt32Opt/lib/libcodeStream_77a8649a24954b9328c5589cc79e5e0de849c466.so"
Using #calcEntry at line 21 in file "/home/openfoam/TurbFOAM-7-Cases/2D-Seperated-Flow-Cases-Final/NASA-Hump-Final/00Baseline/system/controlDict.functions.convergenceProbes"
Using #codeStream with "/home/openfoam/TurbFOAM-7-Cases/2D-Seperated-Flow-Cases-Final/NASA-Hump-Final/00Baseline/dynamicCode/platforms/linux64GccDPInt32Opt/lib/libcodeStream_232a85057e1ed74ae20ebcfa85e596b4eaf035d0.so"
Using #calcEntry at line 22 in file "/home/openfoam/TurbFOAM-7-Cases/2D-Seperated-Flow-Cases-Final/NASA-Hump-Final/00Baseline/system/controlDict.functions.convergenceProbes"
Using #codeStream with "/home/openfoam/TurbFOAM-7-Cases/2D-Seperated-Flow-Cases-Final/NASA-Hump-Final/00Baseline/dynamicCode/platforms/linux64GccDPInt32Opt/lib/libcodeStream_769f7a7007a4c2224a4b123ed1f3869c5af3c189.so"
Using #calcEntry at line 23 in file "/home/openfoam/TurbFOAM-7-Cases/2D-Seperated-Flow-Cases-Final/NASA-Hump-Final/00Baseline/system/controlDict.functions.convergenceProbes"
Using #codeStream with "/home/openfoam/TurbFOAM-7-Cases/2D-Seperated-Flow-Cases-Final/NASA-Hump-Final/00Baseline/dynamicCode/platforms/linux64GccDPInt32Opt/lib/libcodeStream_feb0295de68af9673848f5d3725de5945e497247.so"
Using #calcEntry at line 24 in file "/home/openfoam/TurbFOAM-7-Cases/2D-Seperated-Flow-Cases-Final/NASA-Hump-Final/00Baseline/system/controlDict.functions.convergenceProbes"
Using #codeStream with "/home/openfoam/TurbFOAM-7-Cases/2D-Seperated-Flow-Cases-Final/NASA-Hump-Final/00Baseline/dynamicCode/platforms/linux64GccDPInt32Opt/lib/libcodeStream_e87a4fde7807eb94a4592dd1a6cc678bb7867694.so"
Using #calcEntry at line 25 in file "/home/openfoam/TurbFOAM-7-Cases/2D-Seperated-Flow-Cases-Final/NASA-Hump-Final/00Baseline/system/controlDict.functions.convergenceProbes"
Using #codeStream with "/home/openfoam/TurbFOAM-7-Cases/2D-Seperated-Flow-Cases-Final/NASA-Hump-Final/00Baseline/dynamicCode/platforms/linux64GccDPInt32Opt/lib/libcodeStream_718a18ea8ad2f783ae8b52e7a11ee7eaf8c59f54.so"
Using #calcEntry at line 5 in file "/home/openfoam/TurbFOAM-7-Cases/2D-Seperated-Flow-Cases-Final/NASA-Hump-Final/00Baseline/system/controlDict.functions.convergenceProbes"
Using #codeStream with "/home/openfoam/TurbFOAM-7-Cases/2D-Seperated-Flow-Cases-Final/NASA-Hump-Final/00Baseline/dynamicCode/platforms/linux64GccDPInt32Opt/lib/libcodeStream_d6d37a5775cdea6aea37a5670db29c5e850011c8.so"
Using #calcEntry at line 8 in file "/home/openfoam/TurbFOAM-7-Cases/2D-Seperated-Flow-Cases-Final/NASA-Hump-Final/00Baseline/system/controlDict.functions.convergenceProbes"
Using #codeStream with "/home/openfoam/TurbFOAM-7-Cases/2D-Seperated-Flow-Cases-Final/NASA-Hump-Final/00Baseline/dynamicCode/platforms/linux64GccDPInt32Opt/lib/libcodeStream_5064c54646fb52c8b01562e4b46b6f0f6f9b146d.so"
Using #calcEntry at line 9 in file "/home/openfoam/TurbFOAM-7-Cases/2D-Seperated-Flow-Cases-Final/NASA-Hump-Final/00Baseline/system/controlDict.functions.convergenceProbes"
Using #codeStream with "/home/openfoam/TurbFOAM-7-Cases/2D-Seperated-Flow-Cases-Final/NASA-Hump-Final/00Baseline/dynamicCode/platforms/linux64GccDPInt32Opt/lib/libcodeStream_c12e4b926a933945fdd24a75f21bea16f524b31d.so"
Using #calcEntry at line 12 in file "/home/openfoam/TurbFOAM-7-Cases/2D-Seperated-Flow-Cases-Final/NASA-Hump-Final/00Baseline/system/controlDict.functions.convergenceProbes"
Using #codeStream with "/home/openfoam/TurbFOAM-7-Cases/2D-Seperated-Flow-Cases-Final/NASA-Hump-Final/00Baseline/dynamicCode/platforms/linux64GccDPInt32Opt/lib/libcodeStream_a76d798187388beb9c9164b04f96d59d9682a40f.so"
Using #calcEntry at line 13 in file "/home/openfoam/TurbFOAM-7-Cases/2D-Seperated-Flow-Cases-Final/NASA-Hump-Final/00Baseline/system/controlDict.functions.convergenceProbes"
Using #codeStream with "/home/openfoam/TurbFOAM-7-Cases/2D-Seperated-Flow-Cases-Final/NASA-Hump-Final/00Baseline/dynamicCode/platforms/linux64GccDPInt32Opt/lib/libcodeStream_b5a911e63cf1e3a87e11178bd86b8cba21330a81.so"
Using #calcEntry at line 16 in file "/home/openfoam/TurbFOAM-7-Cases/2D-Seperated-Flow-Cases-Final/NASA-Hump-Final/00Baseline/system/controlDict.functions.convergenceProbes"
Using #codeStream with "/home/openfoam/TurbFOAM-7-Cases/2D-Seperated-Flow-Cases-Final/NASA-Hump-Final/00Baseline/dynamicCode/platforms/linux64GccDPInt32Opt/lib/libcodeStream_1eb51ba167c6bdb0c00559636365e5dc16584c4c.so"
Using #calcEntry at line 17 in file "/home/openfoam/TurbFOAM-7-Cases/2D-Seperated-Flow-Cases-Final/NASA-Hump-Final/00Baseline/system/controlDict.functions.convergenceProbes"
Using #codeStream with "/home/openfoam/TurbFOAM-7-Cases/2D-Seperated-Flow-Cases-Final/NASA-Hump-Final/00Baseline/dynamicCode/platforms/linux64GccDPInt32Opt/lib/libcodeStream_994bdbbb6e4c67657c3e5a8effb50315a8843cd0.so"
Using #calcEntry at line 20 in file "/home/openfoam/TurbFOAM-7-Cases/2D-Seperated-Flow-Cases-Final/NASA-Hump-Final/00Baseline/system/controlDict.functions.convergenceProbes"
Using #codeStream with "/home/openfoam/TurbFOAM-7-Cases/2D-Seperated-Flow-Cases-Final/NASA-Hump-Final/00Baseline/dynamicCode/platforms/linux64GccDPInt32Opt/lib/libcodeStream_1ab17a8d0f1bf248ca0884edcfb9736a4b3df948.so"
Using #calcEntry at line 21 in file "/home/openfoam/TurbFOAM-7-Cases/2D-Seperated-Flow-Cases-Final/NASA-Hump-Final/00Baseline/system/controlDict.functions.convergenceProbes"
Using #codeStream with "/home/openfoam/TurbFOAM-7-Cases/2D-Seperated-Flow-Cases-Final/NASA-Hump-Final/00Baseline/dynamicCode/platforms/linux64GccDPInt32Opt/lib/libcodeStream_dcf0226655645c11778413395c27589c48828be1.so"
Using #calcEntry at line 18 in file "/home/openfoam/TurbFOAM-7-Cases/2D-Seperated-Flow-Cases-Final/NASA-Hump-Final/00Baseline/system/controlDict.functions.singleGraph_x0.8c"
Using #calcEntry at line 19 in file "/home/openfoam/TurbFOAM-7-Cases/2D-Seperated-Flow-Cases-Final/NASA-Hump-Final/00Baseline/system/controlDict.functions.singleGraph_x0.8c"
Using #calcEntry at line 20 in file "/home/openfoam/TurbFOAM-7-Cases/2D-Seperated-Flow-Cases-Final/NASA-Hump-Final/00Baseline/system/controlDict.functions.singleGraph_x0.8c"
Using #calcEntry at line 21 in file "/home/openfoam/TurbFOAM-7-Cases/2D-Seperated-Flow-Cases-Final/NASA-Hump-Final/00Baseline/system/controlDict.functions.singleGraph_x0.8c"
Using #calcEntry at line 22 in file "/home/openfoam/TurbFOAM-7-Cases/2D-Seperated-Flow-Cases-Final/NASA-Hump-Final/00Baseline/system/controlDict.functions.singleGraph_x0.8c"
Using #calcEntry at line 23 in file "/home/openfoam/TurbFOAM-7-Cases/2D-Seperated-Flow-Cases-Final/NASA-Hump-Final/00Baseline/system/controlDict.functions.singleGraph_x0.8c"
Using #calcEntry at line 24 in file "/home/openfoam/TurbFOAM-7-Cases/2D-Seperated-Flow-Cases-Final/NASA-Hump-Final/00Baseline/system/controlDict.functions.singleGraph_x0.8c"
Using #calcEntry at line 25 in file "/home/openfoam/TurbFOAM-7-Cases/2D-Seperated-Flow-Cases-Final/NASA-Hump-Final/00Baseline/system/controlDict.functions.singleGraph_x0.8c"
Using #calcEntry at line 18 in file "/home/openfoam/TurbFOAM-7-Cases/2D-Seperated-Flow-Cases-Final/NASA-Hump-Final/00Baseline/system/controlDict.functions.singleGraph_x0.8c"
Using #calcEntry at line 21 in file "/home/openfoam/TurbFOAM-7-Cases/2D-Seperated-Flow-Cases-Final/NASA-Hump-Final/00Baseline/system/controlDict.functions.singleGraph_x0.8c"
Using #codeStream with "/home/openfoam/TurbFOAM-7-Cases/2D-Seperated-Flow-Cases-Final/NASA-Hump-Final/00Baseline/dynamicCode/platforms/linux64GccDPInt32Opt/lib/libcodeStream_39a58a17a0499c4ff35f1b777578157ffc2e326d.so"
Using #calcEntry at line 18 in file "/home/openfoam/TurbFOAM-7-Cases/2D-Seperated-Flow-Cases-Final/NASA-Hump-Final/00Baseline/system/controlDict.functions.singleGraph_x0.9c"
Using #calcEntry at line 19 in file "/home/openfoam/TurbFOAM-7-Cases/2D-Seperated-Flow-Cases-Final/NASA-Hump-Final/00Baseline/system/controlDict.functions.singleGraph_x0.9c"
Using #calcEntry at line 20 in file "/home/openfoam/TurbFOAM-7-Cases/2D-Seperated-Flow-Cases-Final/NASA-Hump-Final/00Baseline/system/controlDict.functions.singleGraph_x0.9c"
Using #calcEntry at line 21 in file "/home/openfoam/TurbFOAM-7-Cases/2D-Seperated-Flow-Cases-Final/NASA-Hump-Final/00Baseline/system/controlDict.functions.singleGraph_x0.9c"
Using #calcEntry at line 22 in file "/home/openfoam/TurbFOAM-7-Cases/2D-Seperated-Flow-Cases-Final/NASA-Hump-Final/00Baseline/system/controlDict.functions.singleGraph_x0.9c"
Using #calcEntry at line 23 in file "/home/openfoam/TurbFOAM-7-Cases/2D-Seperated-Flow-Cases-Final/NASA-Hump-Final/00Baseline/system/controlDict.functions.singleGraph_x0.9c"
Using #calcEntry at line 24 in file "/home/openfoam/TurbFOAM-7-Cases/2D-Seperated-Flow-Cases-Final/NASA-Hump-Final/00Baseline/system/controlDict.functions.singleGraph_x0.9c"
Using #calcEntry at line 25 in file "/home/openfoam/TurbFOAM-7-Cases/2D-Seperated-Flow-Cases-Final/NASA-Hump-Final/00Baseline/system/controlDict.functions.singleGraph_x0.9c"
Using #calcEntry at line 18 in file "/home/openfoam/TurbFOAM-7-Cases/2D-Seperated-Flow-Cases-Final/NASA-Hump-Final/00Baseline/system/controlDict.functions.singleGraph_x0.9c"
Using #calcEntry at line 21 in file "/home/openfoam/TurbFOAM-7-Cases/2D-Seperated-Flow-Cases-Final/NASA-Hump-Final/00Baseline/system/controlDict.functions.singleGraph_x0.9c"
Using #codeStream with "/home/openfoam/TurbFOAM-7-Cases/2D-Seperated-Flow-Cases-Final/NASA-Hump-Final/00Baseline/dynamicCode/platforms/linux64GccDPInt32Opt/lib/libcodeStream_872a6ba07ef1c58dbabd9230baa149db25a68a9d.so"
Using #calcEntry at line 18 in file "/home/openfoam/TurbFOAM-7-Cases/2D-Seperated-Flow-Cases-Final/NASA-Hump-Final/00Baseline/system/controlDict.functions.singleGraph_x0.65c"
Using #calcEntry at line 19 in file "/home/openfoam/TurbFOAM-7-Cases/2D-Seperated-Flow-Cases-Final/NASA-Hump-Final/00Baseline/system/controlDict.functions.singleGraph_x0.65c"
Using #calcEntry at line 20 in file "/home/openfoam/TurbFOAM-7-Cases/2D-Seperated-Flow-Cases-Final/NASA-Hump-Final/00Baseline/system/controlDict.functions.singleGraph_x0.65c"
Using #calcEntry at line 21 in file "/home/openfoam/TurbFOAM-7-Cases/2D-Seperated-Flow-Cases-Final/NASA-Hump-Final/00Baseline/system/controlDict.functions.singleGraph_x0.65c"
Using #calcEntry at line 22 in file "/home/openfoam/TurbFOAM-7-Cases/2D-Seperated-Flow-Cases-Final/NASA-Hump-Final/00Baseline/system/controlDict.functions.singleGraph_x0.65c"
Using #calcEntry at line 23 in file "/home/openfoam/TurbFOAM-7-Cases/2D-Seperated-Flow-Cases-Final/NASA-Hump-Final/00Baseline/system/controlDict.functions.singleGraph_x0.65c"
Using #calcEntry at line 24 in file "/home/openfoam/TurbFOAM-7-Cases/2D-Seperated-Flow-Cases-Final/NASA-Hump-Final/00Baseline/system/controlDict.functions.singleGraph_x0.65c"
Using #calcEntry at line 25 in file "/home/openfoam/TurbFOAM-7-Cases/2D-Seperated-Flow-Cases-Final/NASA-Hump-Final/00Baseline/system/controlDict.functions.singleGraph_x0.65c"
Using #calcEntry at line 18 in file "/home/openfoam/TurbFOAM-7-Cases/2D-Seperated-Flow-Cases-Final/NASA-Hump-Final/00Baseline/system/controlDict.functions.singleGraph_x0.65c"
Using #calcEntry at line 21 in file "/home/openfoam/TurbFOAM-7-Cases/2D-Seperated-Flow-Cases-Final/NASA-Hump-Final/00Baseline/system/controlDict.functions.singleGraph_x0.65c"
Using #codeStream with "/home/openfoam/TurbFOAM-7-Cases/2D-Seperated-Flow-Cases-Final/NASA-Hump-Final/00Baseline/dynamicCode/platforms/linux64GccDPInt32Opt/lib/libcodeStream_3160ac7836ec37a7f308c90905f407e296494e0d.so"
Using #calcEntry at line 18 in file "/home/openfoam/TurbFOAM-7-Cases/2D-Seperated-Flow-Cases-Final/NASA-Hump-Final/00Baseline/system/controlDict.functions.singleGraph_x1.0c"
Using #calcEntry at line 19 in file "/home/openfoam/TurbFOAM-7-Cases/2D-Seperated-Flow-Cases-Final/NASA-Hump-Final/00Baseline/system/controlDict.functions.singleGraph_x1.0c"
Using #calcEntry at line 20 in file "/home/openfoam/TurbFOAM-7-Cases/2D-Seperated-Flow-Cases-Final/NASA-Hump-Final/00Baseline/system/controlDict.functions.singleGraph_x1.0c"
Using #calcEntry at line 21 in file "/home/openfoam/TurbFOAM-7-Cases/2D-Seperated-Flow-Cases-Final/NASA-Hump-Final/00Baseline/system/controlDict.functions.singleGraph_x1.0c"
Using #calcEntry at line 22 in file "/home/openfoam/TurbFOAM-7-Cases/2D-Seperated-Flow-Cases-Final/NASA-Hump-Final/00Baseline/system/controlDict.functions.singleGraph_x1.0c"
Using #calcEntry at line 23 in file "/home/openfoam/TurbFOAM-7-Cases/2D-Seperated-Flow-Cases-Final/NASA-Hump-Final/00Baseline/system/controlDict.functions.singleGraph_x1.0c"
Using #calcEntry at line 24 in file "/home/openfoam/TurbFOAM-7-Cases/2D-Seperated-Flow-Cases-Final/NASA-Hump-Final/00Baseline/system/controlDict.functions.singleGraph_x1.0c"
Using #calcEntry at line 25 in file "/home/openfoam/TurbFOAM-7-Cases/2D-Seperated-Flow-Cases-Final/NASA-Hump-Final/00Baseline/system/controlDict.functions.singleGraph_x1.0c"
Using #calcEntry at line 18 in file "/home/openfoam/TurbFOAM-7-Cases/2D-Seperated-Flow-Cases-Final/NASA-Hump-Final/00Baseline/system/controlDict.functions.singleGraph_x1.0c"
Using #calcEntry at line 21 in file "/home/openfoam/TurbFOAM-7-Cases/2D-Seperated-Flow-Cases-Final/NASA-Hump-Final/00Baseline/system/controlDict.functions.singleGraph_x1.0c"
Using #codeStream with "/home/openfoam/TurbFOAM-7-Cases/2D-Seperated-Flow-Cases-Final/NASA-Hump-Final/00Baseline/dynamicCode/platforms/linux64GccDPInt32Opt/lib/libcodeStream_7beec5688313a72c327e49254bc535d75299778f.so"
Using #calcEntry at line 18 in file "/home/openfoam/TurbFOAM-7-Cases/2D-Seperated-Flow-Cases-Final/NASA-Hump-Final/00Baseline/system/controlDict.functions.singleGraph_x1.1c"
Using #calcEntry at line 19 in file "/home/openfoam/TurbFOAM-7-Cases/2D-Seperated-Flow-Cases-Final/NASA-Hump-Final/00Baseline/system/controlDict.functions.singleGraph_x1.1c"
Using #calcEntry at line 20 in file "/home/openfoam/TurbFOAM-7-Cases/2D-Seperated-Flow-Cases-Final/NASA-Hump-Final/00Baseline/system/controlDict.functions.singleGraph_x1.1c"
Using #calcEntry at line 21 in file "/home/openfoam/TurbFOAM-7-Cases/2D-Seperated-Flow-Cases-Final/NASA-Hump-Final/00Baseline/system/controlDict.functions.singleGraph_x1.1c"
Using #calcEntry at line 22 in file "/home/openfoam/TurbFOAM-7-Cases/2D-Seperated-Flow-Cases-Final/NASA-Hump-Final/00Baseline/system/controlDict.functions.singleGraph_x1.1c"
Using #calcEntry at line 23 in file "/home/openfoam/TurbFOAM-7-Cases/2D-Seperated-Flow-Cases-Final/NASA-Hump-Final/00Baseline/system/controlDict.functions.singleGraph_x1.1c"
Using #calcEntry at line 24 in file "/home/openfoam/TurbFOAM-7-Cases/2D-Seperated-Flow-Cases-Final/NASA-Hump-Final/00Baseline/system/controlDict.functions.singleGraph_x1.1c"
Using #calcEntry at line 25 in file "/home/openfoam/TurbFOAM-7-Cases/2D-Seperated-Flow-Cases-Final/NASA-Hump-Final/00Baseline/system/controlDict.functions.singleGraph_x1.1c"
Using #calcEntry at line 18 in file "/home/openfoam/TurbFOAM-7-Cases/2D-Seperated-Flow-Cases-Final/NASA-Hump-Final/00Baseline/system/controlDict.functions.singleGraph_x1.1c"
Using #calcEntry at line 21 in file "/home/openfoam/TurbFOAM-7-Cases/2D-Seperated-Flow-Cases-Final/NASA-Hump-Final/00Baseline/system/controlDict.functions.singleGraph_x1.1c"
Using #codeStream with "/home/openfoam/TurbFOAM-7-Cases/2D-Seperated-Flow-Cases-Final/NASA-Hump-Final/00Baseline/dynamicCode/platforms/linux64GccDPInt32Opt/lib/libcodeStream_cd3d6e8dddac4fa0cc2d0bb525f17cd3466230b0.so"
Using #calcEntry at line 18 in file "/home/openfoam/TurbFOAM-7-Cases/2D-Seperated-Flow-Cases-Final/NASA-Hump-Final/00Baseline/system/controlDict.functions.singleGraph_x1.2c"
Using #calcEntry at line 19 in file "/home/openfoam/TurbFOAM-7-Cases/2D-Seperated-Flow-Cases-Final/NASA-Hump-Final/00Baseline/system/controlDict.functions.singleGraph_x1.2c"
Using #calcEntry at line 20 in file "/home/openfoam/TurbFOAM-7-Cases/2D-Seperated-Flow-Cases-Final/NASA-Hump-Final/00Baseline/system/controlDict.functions.singleGraph_x1.2c"
Using #calcEntry at line 21 in file "/home/openfoam/TurbFOAM-7-Cases/2D-Seperated-Flow-Cases-Final/NASA-Hump-Final/00Baseline/system/controlDict.functions.singleGraph_x1.2c"
Using #calcEntry at line 22 in file "/home/openfoam/TurbFOAM-7-Cases/2D-Seperated-Flow-Cases-Final/NASA-Hump-Final/00Baseline/system/controlDict.functions.singleGraph_x1.2c"
Using #calcEntry at line 23 in file "/home/openfoam/TurbFOAM-7-Cases/2D-Seperated-Flow-Cases-Final/NASA-Hump-Final/00Baseline/system/controlDict.functions.singleGraph_x1.2c"
Using #calcEntry at line 24 in file "/home/openfoam/TurbFOAM-7-Cases/2D-Seperated-Flow-Cases-Final/NASA-Hump-Final/00Baseline/system/controlDict.functions.singleGraph_x1.2c"
Using #calcEntry at line 25 in file "/home/openfoam/TurbFOAM-7-Cases/2D-Seperated-Flow-Cases-Final/NASA-Hump-Final/00Baseline/system/controlDict.functions.singleGraph_x1.2c"
Using #calcEntry at line 18 in file "/home/openfoam/TurbFOAM-7-Cases/2D-Seperated-Flow-Cases-Final/NASA-Hump-Final/00Baseline/system/controlDict.functions.singleGraph_x1.2c"
Using #calcEntry at line 21 in file "/home/openfoam/TurbFOAM-7-Cases/2D-Seperated-Flow-Cases-Final/NASA-Hump-Final/00Baseline/system/controlDict.functions.singleGraph_x1.2c"
Using #codeStream with "/home/openfoam/TurbFOAM-7-Cases/2D-Seperated-Flow-Cases-Final/NASA-Hump-Final/00Baseline/dynamicCode/platforms/linux64GccDPInt32Opt/lib/libcodeStream_358ccca60f588d37fa48ad54d584688d5fb009a8.so"
Using #calcEntry at line 18 in file "/home/openfoam/TurbFOAM-7-Cases/2D-Seperated-Flow-Cases-Final/NASA-Hump-Final/00Baseline/system/controlDict.functions.singleGraph_x1.3c"
Using #calcEntry at line 19 in file "/home/openfoam/TurbFOAM-7-Cases/2D-Seperated-Flow-Cases-Final/NASA-Hump-Final/00Baseline/system/controlDict.functions.singleGraph_x1.3c"
Using #calcEntry at line 20 in file "/home/openfoam/TurbFOAM-7-Cases/2D-Seperated-Flow-Cases-Final/NASA-Hump-Final/00Baseline/system/controlDict.functions.singleGraph_x1.3c"
Using #calcEntry at line 21 in file "/home/openfoam/TurbFOAM-7-Cases/2D-Seperated-Flow-Cases-Final/NASA-Hump-Final/00Baseline/system/controlDict.functions.singleGraph_x1.3c"
Using #calcEntry at line 22 in file "/home/openfoam/TurbFOAM-7-Cases/2D-Seperated-Flow-Cases-Final/NASA-Hump-Final/00Baseline/system/controlDict.functions.singleGraph_x1.3c"
Using #calcEntry at line 23 in file "/home/openfoam/TurbFOAM-7-Cases/2D-Seperated-Flow-Cases-Final/NASA-Hump-Final/00Baseline/system/controlDict.functions.singleGraph_x1.3c"
Using #calcEntry at line 24 in file "/home/openfoam/TurbFOAM-7-Cases/2D-Seperated-Flow-Cases-Final/NASA-Hump-Final/00Baseline/system/controlDict.functions.singleGraph_x1.3c"
Using #calcEntry at line 25 in file "/home/openfoam/TurbFOAM-7-Cases/2D-Seperated-Flow-Cases-Final/NASA-Hump-Final/00Baseline/system/controlDict.functions.singleGraph_x1.3c"
Using #calcEntry at line 18 in file "/home/openfoam/TurbFOAM-7-Cases/2D-Seperated-Flow-Cases-Final/NASA-Hump-Final/00Baseline/system/controlDict.functions.singleGraph_x1.3c"
Using #calcEntry at line 21 in file "/home/openfoam/TurbFOAM-7-Cases/2D-Seperated-Flow-Cases-Final/NASA-Hump-Final/00Baseline/system/controlDict.functions.singleGraph_x1.3c"
Using #codeStream with "/home/openfoam/TurbFOAM-7-Cases/2D-Seperated-Flow-Cases-Final/NASA-Hump-Final/00Baseline/dynamicCode/platforms/linux64GccDPInt32Opt/lib/libcodeStream_4ac9cb5ff56d4972a9ef5d63a8e508fd315bd95e.so"

Processor 0
    Number of cells = 12865
    Number of faces shared with processor 1 = 90
    Number of processor patches = 1
    Number of processor faces = 90
    Number of boundary faces = 26122
Using #calcEntry at line 18 in file "/home/openfoam/TurbFOAM-7-Cases/2D-Seperated-Flow-Cases-Final/NASA-Hump-Final/00Baseline/system/controlDict.functions.convergenceProbes"
Using #codeStream with "/home/openfoam/TurbFOAM-7-Cases/2D-Seperated-Flow-Cases-Final/NASA-Hump-Final/00Baseline/dynamicCode/platforms/linux64GccDPInt32Opt/lib/libcodeStream_da114123be999b6b195bea139fd5854040bcf670.so"
Using #calcEntry at line 19 in file "/home/openfoam/TurbFOAM-7-Cases/2D-Seperated-Flow-Cases-Final/NASA-Hump-Final/00Baseline/system/controlDict.functions.convergenceProbes"
Using #codeStream with "/home/openfoam/TurbFOAM-7-Cases/2D-Seperated-Flow-Cases-Final/NASA-Hump-Final/00Baseline/dynamicCode/platforms/linux64GccDPInt32Opt/lib/libcodeStream_45d622e7913f9bd4770ad5b581e2e4b73dacd904.so"
Using #calcEntry at line 20 in file "/home/openfoam/TurbFOAM-7-Cases/2D-Seperated-Flow-Cases-Final/NASA-Hump-Final/00Baseline/system/controlDict.functions.convergenceProbes"
Using #codeStream with "/home/openfoam/TurbFOAM-7-Cases/2D-Seperated-Flow-Cases-Final/NASA-Hump-Final/00Baseline/dynamicCode/platforms/linux64GccDPInt32Opt/lib/libcodeStream_64e3fd77b41514c3ef3ea1a4aeaf375f980dbc80.so"
Using #calcEntry at line 21 in file "/home/openfoam/TurbFOAM-7-Cases/2D-Seperated-Flow-Cases-Final/NASA-Hump-Final/00Baseline/system/controlDict.functions.convergenceProbes"
Using #codeStream with "/home/openfoam/TurbFOAM-7-Cases/2D-Seperated-Flow-Cases-Final/NASA-Hump-Final/00Baseline/dynamicCode/platforms/linux64GccDPInt32Opt/lib/libcodeStream_638489536e401ab9e6338bfe84e5a5c9e569c92b.so"
Using #calcEntry at line 22 in file "/home/openfoam/TurbFOAM-7-Cases/2D-Seperated-Flow-Cases-Final/NASA-Hump-Final/00Baseline/system/controlDict.functions.convergenceProbes"
Using #codeStream with "/home/openfoam/TurbFOAM-7-Cases/2D-Seperated-Flow-Cases-Final/NASA-Hump-Final/00Baseline/dynamicCode/platforms/linux64GccDPInt32Opt/lib/libcodeStream_de47465d6b37999d5663d04f8e77496e855108ce.so"
Using #calcEntry at line 23 in file "/home/openfoam/TurbFOAM-7-Cases/2D-Seperated-Flow-Cases-Final/NASA-Hump-Final/00Baseline/system/controlDict.functions.convergenceProbes"
Using #codeStream with "/home/openfoam/TurbFOAM-7-Cases/2D-Seperated-Flow-Cases-Final/NASA-Hump-Final/00Baseline/dynamicCode/platforms/linux64GccDPInt32Opt/lib/libcodeStream_79c3fbeabdea793dd94bdc9f72858766de460d5d.so"
Using #calcEntry at line 24 in file "/home/openfoam/TurbFOAM-7-Cases/2D-Seperated-Flow-Cases-Final/NASA-Hump-Final/00Baseline/system/controlDict.functions.convergenceProbes"
Using #codeStream with "/home/openfoam/TurbFOAM-7-Cases/2D-Seperated-Flow-Cases-Final/NASA-Hump-Final/00Baseline/dynamicCode/platforms/linux64GccDPInt32Opt/lib/libcodeStream_85deb10a0a95a142378501d053cf1a6710ecf739.so"
Using #calcEntry at line 25 in file "/home/openfoam/TurbFOAM-7-Cases/2D-Seperated-Flow-Cases-Final/NASA-Hump-Final/00Baseline/system/controlDict.functions.convergenceProbes"
Using #codeStream with "/home/openfoam/TurbFOAM-7-Cases/2D-Seperated-Flow-Cases-Final/NASA-Hump-Final/00Baseline/dynamicCode/platforms/linux64GccDPInt32Opt/lib/libcodeStream_c60b2eea69882bb7af042f39280142ad954767db.so"
Using #calcEntry at line 5 in file "/home/openfoam/TurbFOAM-7-Cases/2D-Seperated-Flow-Cases-Final/NASA-Hump-Final/00Baseline/system/controlDict.functions.convergenceProbes"
Using #codeStream with "/home/openfoam/TurbFOAM-7-Cases/2D-Seperated-Flow-Cases-Final/NASA-Hump-Final/00Baseline/dynamicCode/platforms/linux64GccDPInt32Opt/lib/libcodeStream_662218c9d7e260c479f2d613d03bb46acda4d43f.so"
Using #calcEntry at line 8 in file "/home/openfoam/TurbFOAM-7-Cases/2D-Seperated-Flow-Cases-Final/NASA-Hump-Final/00Baseline/system/controlDict.functions.convergenceProbes"
Using #codeStream with "/home/openfoam/TurbFOAM-7-Cases/2D-Seperated-Flow-Cases-Final/NASA-Hump-Final/00Baseline/dynamicCode/platforms/linux64GccDPInt32Opt/lib/libcodeStream_2e15b3e32e85ec5d5e19ab2244ea454f8437eb25.so"
Using #calcEntry at line 9 in file "/home/openfoam/TurbFOAM-7-Cases/2D-Seperated-Flow-Cases-Final/NASA-Hump-Final/00Baseline/system/controlDict.functions.convergenceProbes"
Using #codeStream with "/home/openfoam/TurbFOAM-7-Cases/2D-Seperated-Flow-Cases-Final/NASA-Hump-Final/00Baseline/dynamicCode/platforms/linux64GccDPInt32Opt/lib/libcodeStream_29005d990d680b06d094ebb1b33d45d0c615a4e2.so"
Using #calcEntry at line 12 in file "/home/openfoam/TurbFOAM-7-Cases/2D-Seperated-Flow-Cases-Final/NASA-Hump-Final/00Baseline/system/controlDict.functions.convergenceProbes"
Using #codeStream with "/home/openfoam/TurbFOAM-7-Cases/2D-Seperated-Flow-Cases-Final/NASA-Hump-Final/00Baseline/dynamicCode/platforms/linux64GccDPInt32Opt/lib/libcodeStream_d31e6f49efc80017b8193ba806c0a9d12a2ed2dd.so"
Using #calcEntry at line 13 in file "/home/openfoam/TurbFOAM-7-Cases/2D-Seperated-Flow-Cases-Final/NASA-Hump-Final/00Baseline/system/controlDict.functions.convergenceProbes"
Using #codeStream with "/home/openfoam/TurbFOAM-7-Cases/2D-Seperated-Flow-Cases-Final/NASA-Hump-Final/00Baseline/dynamicCode/platforms/linux64GccDPInt32Opt/lib/libcodeStream_0165be38a7730b0ec2da90f550b6afed7ee6cce3.so"
Using #calcEntry at line 16 in file "/home/openfoam/TurbFOAM-7-Cases/2D-Seperated-Flow-Cases-Final/NASA-Hump-Final/00Baseline/system/controlDict.functions.convergenceProbes"
Using #codeStream with "/home/openfoam/TurbFOAM-7-Cases/2D-Seperated-Flow-Cases-Final/NASA-Hump-Final/00Baseline/dynamicCode/platforms/linux64GccDPInt32Opt/lib/libcodeStream_b7d7faadaa2972e8f1427fdbfbb0a49230383d3f.so"
Using #calcEntry at line 17 in file "/home/openfoam/TurbFOAM-7-Cases/2D-Seperated-Flow-Cases-Final/NASA-Hump-Final/00Baseline/system/controlDict.functions.convergenceProbes"
Using #codeStream with "/home/openfoam/TurbFOAM-7-Cases/2D-Seperated-Flow-Cases-Final/NASA-Hump-Final/00Baseline/dynamicCode/platforms/linux64GccDPInt32Opt/lib/libcodeStream_6dfda6d6daf8c377e31a787baee7ff8309ddcd55.so"
Using #calcEntry at line 20 in file "/home/openfoam/TurbFOAM-7-Cases/2D-Seperated-Flow-Cases-Final/NASA-Hump-Final/00Baseline/system/controlDict.functions.convergenceProbes"
Using #codeStream with "/home/openfoam/TurbFOAM-7-Cases/2D-Seperated-Flow-Cases-Final/NASA-Hump-Final/00Baseline/dynamicCode/platforms/linux64GccDPInt32Opt/lib/libcodeStream_370c377149c2591fb2a5aa5f22894aec6f2cc2a2.so"
Using #calcEntry at line 21 in file "/home/openfoam/TurbFOAM-7-Cases/2D-Seperated-Flow-Cases-Final/NASA-Hump-Final/00Baseline/system/controlDict.functions.convergenceProbes"
Using #codeStream with "/home/openfoam/TurbFOAM-7-Cases/2D-Seperated-Flow-Cases-Final/NASA-Hump-Final/00Baseline/dynamicCode/platforms/linux64GccDPInt32Opt/lib/libcodeStream_fc61a9b605104aab8248308b21ae0ea212a28d33.so"
Using #calcEntry at line 18 in file "/home/openfoam/TurbFOAM-7-Cases/2D-Seperated-Flow-Cases-Final/NASA-Hump-Final/00Baseline/system/controlDict.functions.singleGraph_x0.8c"
Using #calcEntry at line 19 in file "/home/openfoam/TurbFOAM-7-Cases/2D-Seperated-Flow-Cases-Final/NASA-Hump-Final/00Baseline/system/controlDict.functions.singleGraph_x0.8c"
Using #calcEntry at line 20 in file "/home/openfoam/TurbFOAM-7-Cases/2D-Seperated-Flow-Cases-Final/NASA-Hump-Final/00Baseline/system/controlDict.functions.singleGraph_x0.8c"
Using #calcEntry at line 21 in file "/home/openfoam/TurbFOAM-7-Cases/2D-Seperated-Flow-Cases-Final/NASA-Hump-Final/00Baseline/system/controlDict.functions.singleGraph_x0.8c"
Using #calcEntry at line 22 in file "/home/openfoam/TurbFOAM-7-Cases/2D-Seperated-Flow-Cases-Final/NASA-Hump-Final/00Baseline/system/controlDict.functions.singleGraph_x0.8c"
Using #calcEntry at line 23 in file "/home/openfoam/TurbFOAM-7-Cases/2D-Seperated-Flow-Cases-Final/NASA-Hump-Final/00Baseline/system/controlDict.functions.singleGraph_x0.8c"
Using #calcEntry at line 24 in file "/home/openfoam/TurbFOAM-7-Cases/2D-Seperated-Flow-Cases-Final/NASA-Hump-Final/00Baseline/system/controlDict.functions.singleGraph_x0.8c"
Using #calcEntry at line 25 in file "/home/openfoam/TurbFOAM-7-Cases/2D-Seperated-Flow-Cases-Final/NASA-Hump-Final/00Baseline/system/controlDict.functions.singleGraph_x0.8c"
Using #calcEntry at line 18 in file "/home/openfoam/TurbFOAM-7-Cases/2D-Seperated-Flow-Cases-Final/NASA-Hump-Final/00Baseline/system/controlDict.functions.singleGraph_x0.8c"
Using #calcEntry at line 21 in file "/home/openfoam/TurbFOAM-7-Cases/2D-Seperated-Flow-Cases-Final/NASA-Hump-Final/00Baseline/system/controlDict.functions.singleGraph_x0.8c"
Using #codeStream with "/home/openfoam/TurbFOAM-7-Cases/2D-Seperated-Flow-Cases-Final/NASA-Hump-Final/00Baseline/dynamicCode/platforms/linux64GccDPInt32Opt/lib/libcodeStream_7111e38808aceaea681338002e16732d70bda1c3.so"
Using #calcEntry at line 18 in file "/home/openfoam/TurbFOAM-7-Cases/2D-Seperated-Flow-Cases-Final/NASA-Hump-Final/00Baseline/system/controlDict.functions.singleGraph_x0.9c"
Using #calcEntry at line 19 in file "/home/openfoam/TurbFOAM-7-Cases/2D-Seperated-Flow-Cases-Final/NASA-Hump-Final/00Baseline/system/controlDict.functions.singleGraph_x0.9c"
Using #calcEntry at line 20 in file "/home/openfoam/TurbFOAM-7-Cases/2D-Seperated-Flow-Cases-Final/NASA-Hump-Final/00Baseline/system/controlDict.functions.singleGraph_x0.9c"
Using #calcEntry at line 21 in file "/home/openfoam/TurbFOAM-7-Cases/2D-Seperated-Flow-Cases-Final/NASA-Hump-Final/00Baseline/system/controlDict.functions.singleGraph_x0.9c"
Using #calcEntry at line 22 in file "/home/openfoam/TurbFOAM-7-Cases/2D-Seperated-Flow-Cases-Final/NASA-Hump-Final/00Baseline/system/controlDict.functions.singleGraph_x0.9c"
Using #calcEntry at line 23 in file "/home/openfoam/TurbFOAM-7-Cases/2D-Seperated-Flow-Cases-Final/NASA-Hump-Final/00Baseline/system/controlDict.functions.singleGraph_x0.9c"
Using #calcEntry at line 24 in file "/home/openfoam/TurbFOAM-7-Cases/2D-Seperated-Flow-Cases-Final/NASA-Hump-Final/00Baseline/system/controlDict.functions.singleGraph_x0.9c"
Using #calcEntry at line 25 in file "/home/openfoam/TurbFOAM-7-Cases/2D-Seperated-Flow-Cases-Final/NASA-Hump-Final/00Baseline/system/controlDict.functions.singleGraph_x0.9c"
Using #calcEntry at line 18 in file "/home/openfoam/TurbFOAM-7-Cases/2D-Seperated-Flow-Cases-Final/NASA-Hump-Final/00Baseline/system/controlDict.functions.singleGraph_x0.9c"
Using #calcEntry at line 21 in file "/home/openfoam/TurbFOAM-7-Cases/2D-Seperated-Flow-Cases-Final/NASA-Hump-Final/00Baseline/system/controlDict.functions.singleGraph_x0.9c"
Using #codeStream with "/home/openfoam/TurbFOAM-7-Cases/2D-Seperated-Flow-Cases-Final/NASA-Hump-Final/00Baseline/dynamicCode/platforms/linux64GccDPInt32Opt/lib/libcodeStream_6c0b8581d535307dd4412fea74786259e2313ae9.so"
Using #calcEntry at line 18 in file "/home/openfoam/TurbFOAM-7-Cases/2D-Seperated-Flow-Cases-Final/NASA-Hump-Final/00Baseline/system/controlDict.functions.singleGraph_x0.65c"
Using #calcEntry at line 19 in file "/home/openfoam/TurbFOAM-7-Cases/2D-Seperated-Flow-Cases-Final/NASA-Hump-Final/00Baseline/system/controlDict.functions.singleGraph_x0.65c"
Using #calcEntry at line 20 in file "/home/openfoam/TurbFOAM-7-Cases/2D-Seperated-Flow-Cases-Final/NASA-Hump-Final/00Baseline/system/controlDict.functions.singleGraph_x0.65c"
Using #calcEntry at line 21 in file "/home/openfoam/TurbFOAM-7-Cases/2D-Seperated-Flow-Cases-Final/NASA-Hump-Final/00Baseline/system/controlDict.functions.singleGraph_x0.65c"
Using #calcEntry at line 22 in file "/home/openfoam/TurbFOAM-7-Cases/2D-Seperated-Flow-Cases-Final/NASA-Hump-Final/00Baseline/system/controlDict.functions.singleGraph_x0.65c"
Using #calcEntry at line 23 in file "/home/openfoam/TurbFOAM-7-Cases/2D-Seperated-Flow-Cases-Final/NASA-Hump-Final/00Baseline/system/controlDict.functions.singleGraph_x0.65c"
Using #calcEntry at line 24 in file "/home/openfoam/TurbFOAM-7-Cases/2D-Seperated-Flow-Cases-Final/NASA-Hump-Final/00Baseline/system/controlDict.functions.singleGraph_x0.65c"
Using #calcEntry at line 25 in file "/home/openfoam/TurbFOAM-7-Cases/2D-Seperated-Flow-Cases-Final/NASA-Hump-Final/00Baseline/system/controlDict.functions.singleGraph_x0.65c"
Using #calcEntry at line 18 in file "/home/openfoam/TurbFOAM-7-Cases/2D-Seperated-Flow-Cases-Final/NASA-Hump-Final/00Baseline/system/controlDict.functions.singleGraph_x0.65c"
Using #calcEntry at line 21 in file "/home/openfoam/TurbFOAM-7-Cases/2D-Seperated-Flow-Cases-Final/NASA-Hump-Final/00Baseline/system/controlDict.functions.singleGraph_x0.65c"
Using #codeStream with "/home/openfoam/TurbFOAM-7-Cases/2D-Seperated-Flow-Cases-Final/NASA-Hump-Final/00Baseline/dynamicCode/platforms/linux64GccDPInt32Opt/lib/libcodeStream_20feb5d3da1bbeebd4d3d9f47bec00471d78cf1d.so"
Using #calcEntry at line 18 in file "/home/openfoam/TurbFOAM-7-Cases/2D-Seperated-Flow-Cases-Final/NASA-Hump-Final/00Baseline/system/controlDict.functions.singleGraph_x1.0c"
Using #calcEntry at line 19 in file "/home/openfoam/TurbFOAM-7-Cases/2D-Seperated-Flow-Cases-Final/NASA-Hump-Final/00Baseline/system/controlDict.functions.singleGraph_x1.0c"
Using #calcEntry at line 20 in file "/home/openfoam/TurbFOAM-7-Cases/2D-Seperated-Flow-Cases-Final/NASA-Hump-Final/00Baseline/system/controlDict.functions.singleGraph_x1.0c"
Using #calcEntry at line 21 in file "/home/openfoam/TurbFOAM-7-Cases/2D-Seperated-Flow-Cases-Final/NASA-Hump-Final/00Baseline/system/controlDict.functions.singleGraph_x1.0c"
Using #calcEntry at line 22 in file "/home/openfoam/TurbFOAM-7-Cases/2D-Seperated-Flow-Cases-Final/NASA-Hump-Final/00Baseline/system/controlDict.functions.singleGraph_x1.0c"
Using #calcEntry at line 23 in file "/home/openfoam/TurbFOAM-7-Cases/2D-Seperated-Flow-Cases-Final/NASA-Hump-Final/00Baseline/system/controlDict.functions.singleGraph_x1.0c"
Using #calcEntry at line 24 in file "/home/openfoam/TurbFOAM-7-Cases/2D-Seperated-Flow-Cases-Final/NASA-Hump-Final/00Baseline/system/controlDict.functions.singleGraph_x1.0c"
Using #calcEntry at line 25 in file "/home/openfoam/TurbFOAM-7-Cases/2D-Seperated-Flow-Cases-Final/NASA-Hump-Final/00Baseline/system/controlDict.functions.singleGraph_x1.0c"
Using #calcEntry at line 18 in file "/home/openfoam/TurbFOAM-7-Cases/2D-Seperated-Flow-Cases-Final/NASA-Hump-Final/00Baseline/system/controlDict.functions.singleGraph_x1.0c"
Using #calcEntry at line 21 in file "/home/openfoam/TurbFOAM-7-Cases/2D-Seperated-Flow-Cases-Final/NASA-Hump-Final/00Baseline/system/controlDict.functions.singleGraph_x1.0c"
Using #codeStream with "/home/openfoam/TurbFOAM-7-Cases/2D-Seperated-Flow-Cases-Final/NASA-Hump-Final/00Baseline/dynamicCode/platforms/linux64GccDPInt32Opt/lib/libcodeStream_21ee4cf4e2e21a16128b076e9246239cbad296e3.so"
Using #calcEntry at line 18 in file "/home/openfoam/TurbFOAM-7-Cases/2D-Seperated-Flow-Cases-Final/NASA-Hump-Final/00Baseline/system/controlDict.functions.singleGraph_x1.1c"
Using #calcEntry at line 19 in file "/home/openfoam/TurbFOAM-7-Cases/2D-Seperated-Flow-Cases-Final/NASA-Hump-Final/00Baseline/system/controlDict.functions.singleGraph_x1.1c"
Using #calcEntry at line 20 in file "/home/openfoam/TurbFOAM-7-Cases/2D-Seperated-Flow-Cases-Final/NASA-Hump-Final/00Baseline/system/controlDict.functions.singleGraph_x1.1c"
Using #calcEntry at line 21 in file "/home/openfoam/TurbFOAM-7-Cases/2D-Seperated-Flow-Cases-Final/NASA-Hump-Final/00Baseline/system/controlDict.functions.singleGraph_x1.1c"
Using #calcEntry at line 22 in file "/home/openfoam/TurbFOAM-7-Cases/2D-Seperated-Flow-Cases-Final/NASA-Hump-Final/00Baseline/system/controlDict.functions.singleGraph_x1.1c"
Using #calcEntry at line 23 in file "/home/openfoam/TurbFOAM-7-Cases/2D-Seperated-Flow-Cases-Final/NASA-Hump-Final/00Baseline/system/controlDict.functions.singleGraph_x1.1c"
Using #calcEntry at line 24 in file "/home/openfoam/TurbFOAM-7-Cases/2D-Seperated-Flow-Cases-Final/NASA-Hump-Final/00Baseline/system/controlDict.functions.singleGraph_x1.1c"
Using #calcEntry at line 25 in file "/home/openfoam/TurbFOAM-7-Cases/2D-Seperated-Flow-Cases-Final/NASA-Hump-Final/00Baseline/system/controlDict.functions.singleGraph_x1.1c"
Using #calcEntry at line 18 in file "/home/openfoam/TurbFOAM-7-Cases/2D-Seperated-Flow-Cases-Final/NASA-Hump-Final/00Baseline/system/controlDict.functions.singleGraph_x1.1c"
Using #calcEntry at line 21 in file "/home/openfoam/TurbFOAM-7-Cases/2D-Seperated-Flow-Cases-Final/NASA-Hump-Final/00Baseline/system/controlDict.functions.singleGraph_x1.1c"
Using #codeStream with "/home/openfoam/TurbFOAM-7-Cases/2D-Seperated-Flow-Cases-Final/NASA-Hump-Final/00Baseline/dynamicCode/platforms/linux64GccDPInt32Opt/lib/libcodeStream_5e30c530d3e6a745f9c6278486b13abf7e573aa0.so"
Using #calcEntry at line 18 in file "/home/openfoam/TurbFOAM-7-Cases/2D-Seperated-Flow-Cases-Final/NASA-Hump-Final/00Baseline/system/controlDict.functions.singleGraph_x1.2c"
Using #calcEntry at line 19 in file "/home/openfoam/TurbFOAM-7-Cases/2D-Seperated-Flow-Cases-Final/NASA-Hump-Final/00Baseline/system/controlDict.functions.singleGraph_x1.2c"
Using #calcEntry at line 20 in file "/home/openfoam/TurbFOAM-7-Cases/2D-Seperated-Flow-Cases-Final/NASA-Hump-Final/00Baseline/system/controlDict.functions.singleGraph_x1.2c"
Using #calcEntry at line 21 in file "/home/openfoam/TurbFOAM-7-Cases/2D-Seperated-Flow-Cases-Final/NASA-Hump-Final/00Baseline/system/controlDict.functions.singleGraph_x1.2c"
Using #calcEntry at line 22 in file "/home/openfoam/TurbFOAM-7-Cases/2D-Seperated-Flow-Cases-Final/NASA-Hump-Final/00Baseline/system/controlDict.functions.singleGraph_x1.2c"
Using #calcEntry at line 23 in file "/home/openfoam/TurbFOAM-7-Cases/2D-Seperated-Flow-Cases-Final/NASA-Hump-Final/00Baseline/system/controlDict.functions.singleGraph_x1.2c"
Using #calcEntry at line 24 in file "/home/openfoam/TurbFOAM-7-Cases/2D-Seperated-Flow-Cases-Final/NASA-Hump-Final/00Baseline/system/controlDict.functions.singleGraph_x1.2c"
Using #calcEntry at line 25 in file "/home/openfoam/TurbFOAM-7-Cases/2D-Seperated-Flow-Cases-Final/NASA-Hump-Final/00Baseline/system/controlDict.functions.singleGraph_x1.2c"
Using #calcEntry at line 18 in file "/home/openfoam/TurbFOAM-7-Cases/2D-Seperated-Flow-Cases-Final/NASA-Hump-Final/00Baseline/system/controlDict.functions.singleGraph_x1.2c"
Using #calcEntry at line 21 in file "/home/openfoam/TurbFOAM-7-Cases/2D-Seperated-Flow-Cases-Final/NASA-Hump-Final/00Baseline/system/controlDict.functions.singleGraph_x1.2c"
Using #codeStream with "/home/openfoam/TurbFOAM-7-Cases/2D-Seperated-Flow-Cases-Final/NASA-Hump-Final/00Baseline/dynamicCode/platforms/linux64GccDPInt32Opt/lib/libcodeStream_bf064f269f96cfd88ba964ce025e117bf7399bf0.so"
Using #calcEntry at line 18 in file "/home/openfoam/TurbFOAM-7-Cases/2D-Seperated-Flow-Cases-Final/NASA-Hump-Final/00Baseline/system/controlDict.functions.singleGraph_x1.3c"
Using #calcEntry at line 19 in file "/home/openfoam/TurbFOAM-7-Cases/2D-Seperated-Flow-Cases-Final/NASA-Hump-Final/00Baseline/system/controlDict.functions.singleGraph_x1.3c"
Using #calcEntry at line 20 in file "/home/openfoam/TurbFOAM-7-Cases/2D-Seperated-Flow-Cases-Final/NASA-Hump-Final/00Baseline/system/controlDict.functions.singleGraph_x1.3c"
Using #calcEntry at line 21 in file "/home/openfoam/TurbFOAM-7-Cases/2D-Seperated-Flow-Cases-Final/NASA-Hump-Final/00Baseline/system/controlDict.functions.singleGraph_x1.3c"
Using #calcEntry at line 22 in file "/home/openfoam/TurbFOAM-7-Cases/2D-Seperated-Flow-Cases-Final/NASA-Hump-Final/00Baseline/system/controlDict.functions.singleGraph_x1.3c"
Using #calcEntry at line 23 in file "/home/openfoam/TurbFOAM-7-Cases/2D-Seperated-Flow-Cases-Final/NASA-Hump-Final/00Baseline/system/controlDict.functions.singleGraph_x1.3c"
Using #calcEntry at line 24 in file "/home/openfoam/TurbFOAM-7-Cases/2D-Seperated-Flow-Cases-Final/NASA-Hump-Final/00Baseline/system/controlDict.functions.singleGraph_x1.3c"
Using #calcEntry at line 25 in file "/home/openfoam/TurbFOAM-7-Cases/2D-Seperated-Flow-Cases-Final/NASA-Hump-Final/00Baseline/system/controlDict.functions.singleGraph_x1.3c"
Using #calcEntry at line 18 in file "/home/openfoam/TurbFOAM-7-Cases/2D-Seperated-Flow-Cases-Final/NASA-Hump-Final/00Baseline/system/controlDict.functions.singleGraph_x1.3c"
Using #calcEntry at line 21 in file "/home/openfoam/TurbFOAM-7-Cases/2D-Seperated-Flow-Cases-Final/NASA-Hump-Final/00Baseline/system/controlDict.functions.singleGraph_x1.3c"
Using #codeStream with "/home/openfoam/TurbFOAM-7-Cases/2D-Seperated-Flow-Cases-Final/NASA-Hump-Final/00Baseline/dynamicCode/platforms/linux64GccDPInt32Opt/lib/libcodeStream_0f69add8c54517793e13b8af7b641f9802bbac6a.so"

Processor 1
    Number of cells = 12953
    Number of faces shared with processor 0 = 90
    Number of faces shared with processor 3 = 97
    Number of processor patches = 2
    Number of processor faces = 187
    Number of boundary faces = 26219
Using #calcEntry at line 18 in file "/home/openfoam/TurbFOAM-7-Cases/2D-Seperated-Flow-Cases-Final/NASA-Hump-Final/00Baseline/system/controlDict.functions.convergenceProbes"
Using #codeStream with "/home/openfoam/TurbFOAM-7-Cases/2D-Seperated-Flow-Cases-Final/NASA-Hump-Final/00Baseline/dynamicCode/platforms/linux64GccDPInt32Opt/lib/libcodeStream_da114123be999b6b195bea139fd5854040bcf670.so"
Using #calcEntry at line 19 in file "/home/openfoam/TurbFOAM-7-Cases/2D-Seperated-Flow-Cases-Final/NASA-Hump-Final/00Baseline/system/controlDict.functions.convergenceProbes"
Using #codeStream with "/home/openfoam/TurbFOAM-7-Cases/2D-Seperated-Flow-Cases-Final/NASA-Hump-Final/00Baseline/dynamicCode/platforms/linux64GccDPInt32Opt/lib/libcodeStream_45d622e7913f9bd4770ad5b581e2e4b73dacd904.so"
Using #calcEntry at line 20 in file "/home/openfoam/TurbFOAM-7-Cases/2D-Seperated-Flow-Cases-Final/NASA-Hump-Final/00Baseline/system/controlDict.functions.convergenceProbes"
Using #codeStream with "/home/openfoam/TurbFOAM-7-Cases/2D-Seperated-Flow-Cases-Final/NASA-Hump-Final/00Baseline/dynamicCode/platforms/linux64GccDPInt32Opt/lib/libcodeStream_64e3fd77b41514c3ef3ea1a4aeaf375f980dbc80.so"
Using #calcEntry at line 21 in file "/home/openfoam/TurbFOAM-7-Cases/2D-Seperated-Flow-Cases-Final/NASA-Hump-Final/00Baseline/system/controlDict.functions.convergenceProbes"
Using #codeStream with "/home/openfoam/TurbFOAM-7-Cases/2D-Seperated-Flow-Cases-Final/NASA-Hump-Final/00Baseline/dynamicCode/platforms/linux64GccDPInt32Opt/lib/libcodeStream_638489536e401ab9e6338bfe84e5a5c9e569c92b.so"
Using #calcEntry at line 22 in file "/home/openfoam/TurbFOAM-7-Cases/2D-Seperated-Flow-Cases-Final/NASA-Hump-Final/00Baseline/system/controlDict.functions.convergenceProbes"
Using #codeStream with "/home/openfoam/TurbFOAM-7-Cases/2D-Seperated-Flow-Cases-Final/NASA-Hump-Final/00Baseline/dynamicCode/platforms/linux64GccDPInt32Opt/lib/libcodeStream_de47465d6b37999d5663d04f8e77496e855108ce.so"
Using #calcEntry at line 23 in file "/home/openfoam/TurbFOAM-7-Cases/2D-Seperated-Flow-Cases-Final/NASA-Hump-Final/00Baseline/system/controlDict.functions.convergenceProbes"
Using #codeStream with "/home/openfoam/TurbFOAM-7-Cases/2D-Seperated-Flow-Cases-Final/NASA-Hump-Final/00Baseline/dynamicCode/platforms/linux64GccDPInt32Opt/lib/libcodeStream_79c3fbeabdea793dd94bdc9f72858766de460d5d.so"
Using #calcEntry at line 24 in file "/home/openfoam/TurbFOAM-7-Cases/2D-Seperated-Flow-Cases-Final/NASA-Hump-Final/00Baseline/system/controlDict.functions.convergenceProbes"
Using #codeStream with "/home/openfoam/TurbFOAM-7-Cases/2D-Seperated-Flow-Cases-Final/NASA-Hump-Final/00Baseline/dynamicCode/platforms/linux64GccDPInt32Opt/lib/libcodeStream_85deb10a0a95a142378501d053cf1a6710ecf739.so"
Using #calcEntry at line 25 in file "/home/openfoam/TurbFOAM-7-Cases/2D-Seperated-Flow-Cases-Final/NASA-Hump-Final/00Baseline/system/controlDict.functions.convergenceProbes"
Using #codeStream with "/home/openfoam/TurbFOAM-7-Cases/2D-Seperated-Flow-Cases-Final/NASA-Hump-Final/00Baseline/dynamicCode/platforms/linux64GccDPInt32Opt/lib/libcodeStream_c60b2eea69882bb7af042f39280142ad954767db.so"
Using #calcEntry at line 5 in file "/home/openfoam/TurbFOAM-7-Cases/2D-Seperated-Flow-Cases-Final/NASA-Hump-Final/00Baseline/system/controlDict.functions.convergenceProbes"
Using #codeStream with "/home/openfoam/TurbFOAM-7-Cases/2D-Seperated-Flow-Cases-Final/NASA-Hump-Final/00Baseline/dynamicCode/platforms/linux64GccDPInt32Opt/lib/libcodeStream_662218c9d7e260c479f2d613d03bb46acda4d43f.so"
Using #calcEntry at line 8 in file "/home/openfoam/TurbFOAM-7-Cases/2D-Seperated-Flow-Cases-Final/NASA-Hump-Final/00Baseline/system/controlDict.functions.convergenceProbes"
Using #codeStream with "/home/openfoam/TurbFOAM-7-Cases/2D-Seperated-Flow-Cases-Final/NASA-Hump-Final/00Baseline/dynamicCode/platforms/linux64GccDPInt32Opt/lib/libcodeStream_2e15b3e32e85ec5d5e19ab2244ea454f8437eb25.so"
Using #calcEntry at line 9 in file "/home/openfoam/TurbFOAM-7-Cases/2D-Seperated-Flow-Cases-Final/NASA-Hump-Final/00Baseline/system/controlDict.functions.convergenceProbes"
Using #codeStream with "/home/openfoam/TurbFOAM-7-Cases/2D-Seperated-Flow-Cases-Final/NASA-Hump-Final/00Baseline/dynamicCode/platforms/linux64GccDPInt32Opt/lib/libcodeStream_29005d990d680b06d094ebb1b33d45d0c615a4e2.so"
Using #calcEntry at line 12 in file "/home/openfoam/TurbFOAM-7-Cases/2D-Seperated-Flow-Cases-Final/NASA-Hump-Final/00Baseline/system/controlDict.functions.convergenceProbes"
Using #codeStream with "/home/openfoam/TurbFOAM-7-Cases/2D-Seperated-Flow-Cases-Final/NASA-Hump-Final/00Baseline/dynamicCode/platforms/linux64GccDPInt32Opt/lib/libcodeStream_d31e6f49efc80017b8193ba806c0a9d12a2ed2dd.so"
Using #calcEntry at line 13 in file "/home/openfoam/TurbFOAM-7-Cases/2D-Seperated-Flow-Cases-Final/NASA-Hump-Final/00Baseline/system/controlDict.functions.convergenceProbes"
Using #codeStream with "/home/openfoam/TurbFOAM-7-Cases/2D-Seperated-Flow-Cases-Final/NASA-Hump-Final/00Baseline/dynamicCode/platforms/linux64GccDPInt32Opt/lib/libcodeStream_0165be38a7730b0ec2da90f550b6afed7ee6cce3.so"
Using #calcEntry at line 16 in file "/home/openfoam/TurbFOAM-7-Cases/2D-Seperated-Flow-Cases-Final/NASA-Hump-Final/00Baseline/system/controlDict.functions.convergenceProbes"
Using #codeStream with "/home/openfoam/TurbFOAM-7-Cases/2D-Seperated-Flow-Cases-Final/NASA-Hump-Final/00Baseline/dynamicCode/platforms/linux64GccDPInt32Opt/lib/libcodeStream_b7d7faadaa2972e8f1427fdbfbb0a49230383d3f.so"
Using #calcEntry at line 17 in file "/home/openfoam/TurbFOAM-7-Cases/2D-Seperated-Flow-Cases-Final/NASA-Hump-Final/00Baseline/system/controlDict.functions.convergenceProbes"
Using #codeStream with "/home/openfoam/TurbFOAM-7-Cases/2D-Seperated-Flow-Cases-Final/NASA-Hump-Final/00Baseline/dynamicCode/platforms/linux64GccDPInt32Opt/lib/libcodeStream_6dfda6d6daf8c377e31a787baee7ff8309ddcd55.so"
Using #calcEntry at line 20 in file "/home/openfoam/TurbFOAM-7-Cases/2D-Seperated-Flow-Cases-Final/NASA-Hump-Final/00Baseline/system/controlDict.functions.convergenceProbes"
Using #codeStream with "/home/openfoam/TurbFOAM-7-Cases/2D-Seperated-Flow-Cases-Final/NASA-Hump-Final/00Baseline/dynamicCode/platforms/linux64GccDPInt32Opt/lib/libcodeStream_370c377149c2591fb2a5aa5f22894aec6f2cc2a2.so"
Using #calcEntry at line 21 in file "/home/openfoam/TurbFOAM-7-Cases/2D-Seperated-Flow-Cases-Final/NASA-Hump-Final/00Baseline/system/controlDict.functions.convergenceProbes"
Using #codeStream with "/home/openfoam/TurbFOAM-7-Cases/2D-Seperated-Flow-Cases-Final/NASA-Hump-Final/00Baseline/dynamicCode/platforms/linux64GccDPInt32Opt/lib/libcodeStream_fc61a9b605104aab8248308b21ae0ea212a28d33.so"
Using #calcEntry at line 18 in file "/home/openfoam/TurbFOAM-7-Cases/2D-Seperated-Flow-Cases-Final/NASA-Hump-Final/00Baseline/system/controlDict.functions.singleGraph_x0.8c"
Using #calcEntry at line 19 in file "/home/openfoam/TurbFOAM-7-Cases/2D-Seperated-Flow-Cases-Final/NASA-Hump-Final/00Baseline/system/controlDict.functions.singleGraph_x0.8c"
Using #calcEntry at line 20 in file "/home/openfoam/TurbFOAM-7-Cases/2D-Seperated-Flow-Cases-Final/NASA-Hump-Final/00Baseline/system/controlDict.functions.singleGraph_x0.8c"
Using #calcEntry at line 21 in file "/home/openfoam/TurbFOAM-7-Cases/2D-Seperated-Flow-Cases-Final/NASA-Hump-Final/00Baseline/system/controlDict.functions.singleGraph_x0.8c"
Using #calcEntry at line 22 in file "/home/openfoam/TurbFOAM-7-Cases/2D-Seperated-Flow-Cases-Final/NASA-Hump-Final/00Baseline/system/controlDict.functions.singleGraph_x0.8c"
Using #calcEntry at line 23 in file "/home/openfoam/TurbFOAM-7-Cases/2D-Seperated-Flow-Cases-Final/NASA-Hump-Final/00Baseline/system/controlDict.functions.singleGraph_x0.8c"
Using #calcEntry at line 24 in file "/home/openfoam/TurbFOAM-7-Cases/2D-Seperated-Flow-Cases-Final/NASA-Hump-Final/00Baseline/system/controlDict.functions.singleGraph_x0.8c"
Using #calcEntry at line 25 in file "/home/openfoam/TurbFOAM-7-Cases/2D-Seperated-Flow-Cases-Final/NASA-Hump-Final/00Baseline/system/controlDict.functions.singleGraph_x0.8c"
Using #calcEntry at line 18 in file "/home/openfoam/TurbFOAM-7-Cases/2D-Seperated-Flow-Cases-Final/NASA-Hump-Final/00Baseline/system/controlDict.functions.singleGraph_x0.8c"
Using #calcEntry at line 21 in file "/home/openfoam/TurbFOAM-7-Cases/2D-Seperated-Flow-Cases-Final/NASA-Hump-Final/00Baseline/system/controlDict.functions.singleGraph_x0.8c"
Using #codeStream with "/home/openfoam/TurbFOAM-7-Cases/2D-Seperated-Flow-Cases-Final/NASA-Hump-Final/00Baseline/dynamicCode/platforms/linux64GccDPInt32Opt/lib/libcodeStream_7111e38808aceaea681338002e16732d70bda1c3.so"
Using #calcEntry at line 18 in file "/home/openfoam/TurbFOAM-7-Cases/2D-Seperated-Flow-Cases-Final/NASA-Hump-Final/00Baseline/system/controlDict.functions.singleGraph_x0.9c"
Using #calcEntry at line 19 in file "/home/openfoam/TurbFOAM-7-Cases/2D-Seperated-Flow-Cases-Final/NASA-Hump-Final/00Baseline/system/controlDict.functions.singleGraph_x0.9c"
Using #calcEntry at line 20 in file "/home/openfoam/TurbFOAM-7-Cases/2D-Seperated-Flow-Cases-Final/NASA-Hump-Final/00Baseline/system/controlDict.functions.singleGraph_x0.9c"
Using #calcEntry at line 21 in file "/home/openfoam/TurbFOAM-7-Cases/2D-Seperated-Flow-Cases-Final/NASA-Hump-Final/00Baseline/system/controlDict.functions.singleGraph_x0.9c"
Using #calcEntry at line 22 in file "/home/openfoam/TurbFOAM-7-Cases/2D-Seperated-Flow-Cases-Final/NASA-Hump-Final/00Baseline/system/controlDict.functions.singleGraph_x0.9c"
Using #calcEntry at line 23 in file "/home/openfoam/TurbFOAM-7-Cases/2D-Seperated-Flow-Cases-Final/NASA-Hump-Final/00Baseline/system/controlDict.functions.singleGraph_x0.9c"
Using #calcEntry at line 24 in file "/home/openfoam/TurbFOAM-7-Cases/2D-Seperated-Flow-Cases-Final/NASA-Hump-Final/00Baseline/system/controlDict.functions.singleGraph_x0.9c"
Using #calcEntry at line 25 in file "/home/openfoam/TurbFOAM-7-Cases/2D-Seperated-Flow-Cases-Final/NASA-Hump-Final/00Baseline/system/controlDict.functions.singleGraph_x0.9c"
Using #calcEntry at line 18 in file "/home/openfoam/TurbFOAM-7-Cases/2D-Seperated-Flow-Cases-Final/NASA-Hump-Final/00Baseline/system/controlDict.functions.singleGraph_x0.9c"
Using #calcEntry at line 21 in file "/home/openfoam/TurbFOAM-7-Cases/2D-Seperated-Flow-Cases-Final/NASA-Hump-Final/00Baseline/system/controlDict.functions.singleGraph_x0.9c"
Using #codeStream with "/home/openfoam/TurbFOAM-7-Cases/2D-Seperated-Flow-Cases-Final/NASA-Hump-Final/00Baseline/dynamicCode/platforms/linux64GccDPInt32Opt/lib/libcodeStream_6c0b8581d535307dd4412fea74786259e2313ae9.so"
Using #calcEntry at line 18 in file "/home/openfoam/TurbFOAM-7-Cases/2D-Seperated-Flow-Cases-Final/NASA-Hump-Final/00Baseline/system/controlDict.functions.singleGraph_x0.65c"
Using #calcEntry at line 19 in file "/home/openfoam/TurbFOAM-7-Cases/2D-Seperated-Flow-Cases-Final/NASA-Hump-Final/00Baseline/system/controlDict.functions.singleGraph_x0.65c"
Using #calcEntry at line 20 in file "/home/openfoam/TurbFOAM-7-Cases/2D-Seperated-Flow-Cases-Final/NASA-Hump-Final/00Baseline/system/controlDict.functions.singleGraph_x0.65c"
Using #calcEntry at line 21 in file "/home/openfoam/TurbFOAM-7-Cases/2D-Seperated-Flow-Cases-Final/NASA-Hump-Final/00Baseline/system/controlDict.functions.singleGraph_x0.65c"
Using #calcEntry at line 22 in file "/home/openfoam/TurbFOAM-7-Cases/2D-Seperated-Flow-Cases-Final/NASA-Hump-Final/00Baseline/system/controlDict.functions.singleGraph_x0.65c"
Using #calcEntry at line 23 in file "/home/openfoam/TurbFOAM-7-Cases/2D-Seperated-Flow-Cases-Final/NASA-Hump-Final/00Baseline/system/controlDict.functions.singleGraph_x0.65c"
Using #calcEntry at line 24 in file "/home/openfoam/TurbFOAM-7-Cases/2D-Seperated-Flow-Cases-Final/NASA-Hump-Final/00Baseline/system/controlDict.functions.singleGraph_x0.65c"
Using #calcEntry at line 25 in file "/home/openfoam/TurbFOAM-7-Cases/2D-Seperated-Flow-Cases-Final/NASA-Hump-Final/00Baseline/system/controlDict.functions.singleGraph_x0.65c"
Using #calcEntry at line 18 in file "/home/openfoam/TurbFOAM-7-Cases/2D-Seperated-Flow-Cases-Final/NASA-Hump-Final/00Baseline/system/controlDict.functions.singleGraph_x0.65c"
Using #calcEntry at line 21 in file "/home/openfoam/TurbFOAM-7-Cases/2D-Seperated-Flow-Cases-Final/NASA-Hump-Final/00Baseline/system/controlDict.functions.singleGraph_x0.65c"
Using #codeStream with "/home/openfoam/TurbFOAM-7-Cases/2D-Seperated-Flow-Cases-Final/NASA-Hump-Final/00Baseline/dynamicCode/platforms/linux64GccDPInt32Opt/lib/libcodeStream_20feb5d3da1bbeebd4d3d9f47bec00471d78cf1d.so"
Using #calcEntry at line 18 in file "/home/openfoam/TurbFOAM-7-Cases/2D-Seperated-Flow-Cases-Final/NASA-Hump-Final/00Baseline/system/controlDict.functions.singleGraph_x1.0c"
Using #calcEntry at line 19 in file "/home/openfoam/TurbFOAM-7-Cases/2D-Seperated-Flow-Cases-Final/NASA-Hump-Final/00Baseline/system/controlDict.functions.singleGraph_x1.0c"
Using #calcEntry at line 20 in file "/home/openfoam/TurbFOAM-7-Cases/2D-Seperated-Flow-Cases-Final/NASA-Hump-Final/00Baseline/system/controlDict.functions.singleGraph_x1.0c"
Using #calcEntry at line 21 in file "/home/openfoam/TurbFOAM-7-Cases/2D-Seperated-Flow-Cases-Final/NASA-Hump-Final/00Baseline/system/controlDict.functions.singleGraph_x1.0c"
Using #calcEntry at line 22 in file "/home/openfoam/TurbFOAM-7-Cases/2D-Seperated-Flow-Cases-Final/NASA-Hump-Final/00Baseline/system/controlDict.functions.singleGraph_x1.0c"
Using #calcEntry at line 23 in file "/home/openfoam/TurbFOAM-7-Cases/2D-Seperated-Flow-Cases-Final/NASA-Hump-Final/00Baseline/system/controlDict.functions.singleGraph_x1.0c"
Using #calcEntry at line 24 in file "/home/openfoam/TurbFOAM-7-Cases/2D-Seperated-Flow-Cases-Final/NASA-Hump-Final/00Baseline/system/controlDict.functions.singleGraph_x1.0c"
Using #calcEntry at line 25 in file "/home/openfoam/TurbFOAM-7-Cases/2D-Seperated-Flow-Cases-Final/NASA-Hump-Final/00Baseline/system/controlDict.functions.singleGraph_x1.0c"
Using #calcEntry at line 18 in file "/home/openfoam/TurbFOAM-7-Cases/2D-Seperated-Flow-Cases-Final/NASA-Hump-Final/00Baseline/system/controlDict.functions.singleGraph_x1.0c"
Using #calcEntry at line 21 in file "/home/openfoam/TurbFOAM-7-Cases/2D-Seperated-Flow-Cases-Final/NASA-Hump-Final/00Baseline/system/controlDict.functions.singleGraph_x1.0c"
Using #codeStream with "/home/openfoam/TurbFOAM-7-Cases/2D-Seperated-Flow-Cases-Final/NASA-Hump-Final/00Baseline/dynamicCode/platforms/linux64GccDPInt32Opt/lib/libcodeStream_21ee4cf4e2e21a16128b076e9246239cbad296e3.so"
Using #calcEntry at line 18 in file "/home/openfoam/TurbFOAM-7-Cases/2D-Seperated-Flow-Cases-Final/NASA-Hump-Final/00Baseline/system/controlDict.functions.singleGraph_x1.1c"
Using #calcEntry at line 19 in file "/home/openfoam/TurbFOAM-7-Cases/2D-Seperated-Flow-Cases-Final/NASA-Hump-Final/00Baseline/system/controlDict.functions.singleGraph_x1.1c"
Using #calcEntry at line 20 in file "/home/openfoam/TurbFOAM-7-Cases/2D-Seperated-Flow-Cases-Final/NASA-Hump-Final/00Baseline/system/controlDict.functions.singleGraph_x1.1c"
Using #calcEntry at line 21 in file "/home/openfoam/TurbFOAM-7-Cases/2D-Seperated-Flow-Cases-Final/NASA-Hump-Final/00Baseline/system/controlDict.functions.singleGraph_x1.1c"
Using #calcEntry at line 22 in file "/home/openfoam/TurbFOAM-7-Cases/2D-Seperated-Flow-Cases-Final/NASA-Hump-Final/00Baseline/system/controlDict.functions.singleGraph_x1.1c"
Using #calcEntry at line 23 in file "/home/openfoam/TurbFOAM-7-Cases/2D-Seperated-Flow-Cases-Final/NASA-Hump-Final/00Baseline/system/controlDict.functions.singleGraph_x1.1c"
Using #calcEntry at line 24 in file "/home/openfoam/TurbFOAM-7-Cases/2D-Seperated-Flow-Cases-Final/NASA-Hump-Final/00Baseline/system/controlDict.functions.singleGraph_x1.1c"
Using #calcEntry at line 25 in file "/home/openfoam/TurbFOAM-7-Cases/2D-Seperated-Flow-Cases-Final/NASA-Hump-Final/00Baseline/system/controlDict.functions.singleGraph_x1.1c"
Using #calcEntry at line 18 in file "/home/openfoam/TurbFOAM-7-Cases/2D-Seperated-Flow-Cases-Final/NASA-Hump-Final/00Baseline/system/controlDict.functions.singleGraph_x1.1c"
Using #calcEntry at line 21 in file "/home/openfoam/TurbFOAM-7-Cases/2D-Seperated-Flow-Cases-Final/NASA-Hump-Final/00Baseline/system/controlDict.functions.singleGraph_x1.1c"
Using #codeStream with "/home/openfoam/TurbFOAM-7-Cases/2D-Seperated-Flow-Cases-Final/NASA-Hump-Final/00Baseline/dynamicCode/platforms/linux64GccDPInt32Opt/lib/libcodeStream_5e30c530d3e6a745f9c6278486b13abf7e573aa0.so"
Using #calcEntry at line 18 in file "/home/openfoam/TurbFOAM-7-Cases/2D-Seperated-Flow-Cases-Final/NASA-Hump-Final/00Baseline/system/controlDict.functions.singleGraph_x1.2c"
Using #calcEntry at line 19 in file "/home/openfoam/TurbFOAM-7-Cases/2D-Seperated-Flow-Cases-Final/NASA-Hump-Final/00Baseline/system/controlDict.functions.singleGraph_x1.2c"
[...]
Using #codeStream with "/home/openfoam/TurbFOAM-7-Cases/2D-Seperated-Flow-Cases-Final/NASA-Hump-Final/00Baseline/dynamicCode/platforms/linux64GccDPInt32Opt/lib/libcodeStream_a247f6ff1f11efb20133ca2dbfdb37ba69ba54a5.so"
Using #calcEntry at line 20 in file "/home/openfoam/TurbFOAM-7-Cases/2D-Seperated-Flow-Cases-Final/NASA-Hump-Final/00Baseline/system/controlDict.functions.convergenceProbes"
Using #codeStream with "/home/openfoam/TurbFOAM-7-Cases/2D-Seperated-Flow-Cases-Final/NASA-Hump-Final/00Baseline/dynamicCode/platforms/linux64GccDPInt32Opt/lib/libcodeStream_77a8649a24954b9328c5589cc79e5e0de849c466.so"
Using #calcEntry at line 21 in file "/home/openfoam/TurbFOAM-7-Cases/2D-Seperated-Flow-Cases-Final/NASA-Hump-Final/00Baseline/system/controlDict.functions.convergenceProbes"
Using #codeStream with "/home/openfoam/TurbFOAM-7-Cases/2D-Seperated-Flow-Cases-Final/NASA-Hump-Final/00Baseline/dynamicCode/platforms/linux64GccDPInt32Opt/lib/libcodeStream_232a85057e1ed74ae20ebcfa85e596b4eaf035d0.so"
Using #calcEntry at line 22 in file "/home/openfoam/TurbFOAM-7-Cases/2D-Seperated-Flow-Cases-Final/NASA-Hump-Final/00Baseline/system/controlDict.functions.convergenceProbes"
Using #codeStream with "/home/openfoam/TurbFOAM-7-Cases/2D-Seperated-Flow-Cases-Final/NASA-Hump-Final/00Baseline/dynamicCode/platforms/linux64GccDPInt32Opt/lib/libcodeStream_769f7a7007a4c2224a4b123ed1f3869c5af3c189.so"
Using #calcEntry at line 23 in file "/home/openfoam/TurbFOAM-7-Cases/2D-Seperated-Flow-Cases-Final/NASA-Hump-Final/00Baseline/system/controlDict.functions.convergenceProbes"
Using #codeStream with "/home/openfoam/TurbFOAM-7-Cases/2D-Seperated-Flow-Cases-Final/NASA-Hump-Final/00Baseline/dynamicCode/platforms/linux64GccDPInt32Opt/lib/libcodeStream_feb0295de68af9673848f5d3725de5945e497247.so"
Using #calcEntry at line 24 in file "/home/openfoam/TurbFOAM-7-Cases/2D-Seperated-Flow-Cases-Final/NASA-Hump-Final/00Baseline/system/controlDict.functions.convergenceProbes"
Using #codeStream with "/home/openfoam/TurbFOAM-7-Cases/2D-Seperated-Flow-Cases-Final/NASA-Hump-Final/00Baseline/dynamicCode/platforms/linux64GccDPInt32Opt/lib/libcodeStream_e87a4fde7807eb94a4592dd1a6cc678bb7867694.so"
Using #calcEntry at line 25 in file "/home/openfoam/TurbFOAM-7-Cases/2D-Seperated-Flow-Cases-Final/NASA-Hump-Final/00Baseline/system/controlDict.functions.convergenceProbes"
Using #codeStream with "/home/openfoam/TurbFOAM-7-Cases/2D-Seperated-Flow-Cases-Final/NASA-Hump-Final/00Baseline/dynamicCode/platforms/linux64GccDPInt32Opt/lib/libcodeStream_718a18ea8ad2f783ae8b52e7a11ee7eaf8c59f54.so"
Using #calcEntry at line 5 in file "/home/openfoam/TurbFOAM-7-Cases/2D-Seperated-Flow-Cases-Final/NASA-Hump-Final/00Baseline/system/controlDict.functions.convergenceProbes"
Using #codeStream with "/home/openfoam/TurbFOAM-7-Cases/2D-Seperated-Flow-Cases-Final/NASA-Hump-Final/00Baseline/dynamicCode/platforms/linux64GccDPInt32Opt/lib/libcodeStream_d6d37a5775cdea6aea37a5670db29c5e850011c8.so"
Using #calcEntry at line 8 in file "/home/openfoam/TurbFOAM-7-Cases/2D-Seperated-Flow-Cases-Final/NASA-Hump-Final/00Baseline/system/controlDict.functions.convergenceProbes"
Using #codeStream with "/home/openfoam/TurbFOAM-7-Cases/2D-Seperated-Flow-Cases-Final/NASA-Hump-Final/00Baseline/dynamicCode/platforms/linux64GccDPInt32Opt/lib/libcodeStream_5064c54646fb52c8b01562e4b46b6f0f6f9b146d.so"
Using #calcEntry at line 9 in file "/home/openfoam/TurbFOAM-7-Cases/2D-Seperated-Flow-Cases-Final/NASA-Hump-Final/00Baseline/system/controlDict.functions.convergenceProbes"
Using #codeStream with "/home/openfoam/TurbFOAM-7-Cases/2D-Seperated-Flow-Cases-Final/NASA-Hump-Final/00Baseline/dynamicCode/platforms/linux64GccDPInt32Opt/lib/libcodeStream_c12e4b926a933945fdd24a75f21bea16f524b31d.so"
Using #calcEntry at line 12 in file "/home/openfoam/TurbFOAM-7-Cases/2D-Seperated-Flow-Cases-Final/NASA-Hump-Final/00Baseline/system/controlDict.functions.convergenceProbes"
Using #codeStream with "/home/openfoam/TurbFOAM-7-Cases/2D-Seperated-Flow-Cases-Final/NASA-Hump-Final/00Baseline/dynamicCode/platforms/linux64GccDPInt32Opt/lib/libcodeStream_a76d798187388beb9c9164b04f96d59d9682a40f.so"
Using #calcEntry at line 13 in file "/home/openfoam/TurbFOAM-7-Cases/2D-Seperated-Flow-Cases-Final/NASA-Hump-Final/00Baseline/system/controlDict.functions.convergenceProbes"
Using #codeStream with "/home/openfoam/TurbFOAM-7-Cases/2D-Seperated-Flow-Cases-Final/NASA-Hump-Final/00Baseline/dynamicCode/platforms/linux64GccDPInt32Opt/lib/libcodeStream_b5a911e63cf1e3a87e11178bd86b8cba21330a81.so"
Using #calcEntry at line 16 in file "/home/openfoam/TurbFOAM-7-Cases/2D-Seperated-Flow-Cases-Final/NASA-Hump-Final/00Baseline/system/controlDict.functions.convergenceProbes"
Using #codeStream with "/home/openfoam/TurbFOAM-7-Cases/2D-Seperated-Flow-Cases-Final/NASA-Hump-Final/00Baseline/dynamicCode/platforms/linux64GccDPInt32Opt/lib/libcodeStream_1eb51ba167c6bdb0c00559636365e5dc16584c4c.so"
Using #calcEntry at line 17 in file "/home/openfoam/TurbFOAM-7-Cases/2D-Seperated-Flow-Cases-Final/NASA-Hump-Final/00Baseline/system/controlDict.functions.convergenceProbes"
Using #codeStream with "/home/openfoam/TurbFOAM-7-Cases/2D-Seperated-Flow-Cases-Final/NASA-Hump-Final/00Baseline/dynamicCode/platforms/linux64GccDPInt32Opt/lib/libcodeStream_994bdbbb6e4c67657c3e5a8effb50315a8843cd0.so"
Using #calcEntry at line 20 in file "/home/openfoam/TurbFOAM-7-Cases/2D-Seperated-Flow-Cases-Final/NASA-Hump-Final/00Baseline/system/controlDict.functions.convergenceProbes"
Using #codeStream with "/home/openfoam/TurbFOAM-7-Cases/2D-Seperated-Flow-Cases-Final/NASA-Hump-Final/00Baseline/dynamicCode/platforms/linux64GccDPInt32Opt/lib/libcodeStream_1ab17a8d0f1bf248ca0884edcfb9736a4b3df948.so"
Using #calcEntry at line 21 in file "/home/openfoam/TurbFOAM-7-Cases/2D-Seperated-Flow-Cases-Final/NASA-Hump-Final/00Baseline/system/controlDict.functions.convergenceProbes"
Using #codeStream with "/home/openfoam/TurbFOAM-7-Cases/2D-Seperated-Flow-Cases-Final/NASA-Hump-Final/00Baseline/dynamicCode/platforms/linux64GccDPInt32Opt/lib/libcodeStream_dcf0226655645c11778413395c27589c48828be1.so"
Using #calcEntry at line 18 in file "/home/openfoam/TurbFOAM-7-Cases/2D-Seperated-Flow-Cases-Final/NASA-Hump-Final/00Baseline/system/controlDict.functions.singleGraph_x0.8c"
Using #calcEntry at line 19 in file "/home/openfoam/TurbFOAM-7-Cases/2D-Seperated-Flow-Cases-Final/NASA-Hump-Final/00Baseline/system/controlDict.functions.singleGraph_x0.8c"
Using #calcEntry at line 20 in file "/home/openfoam/TurbFOAM-7-Cases/2D-Seperated-Flow-Cases-Final/NASA-Hump-Final/00Baseline/system/controlDict.functions.singleGraph_x0.8c"
Using #calcEntry at line 21 in file "/home/openfoam/TurbFOAM-7-Cases/2D-Seperated-Flow-Cases-Final/NASA-Hump-Final/00Baseline/system/controlDict.functions.singleGraph_x0.8c"
Using #calcEntry at line 22 in file "/home/openfoam/TurbFOAM-7-Cases/2D-Seperated-Flow-Cases-Final/NASA-Hump-Final/00Baseline/system/controlDict.functions.singleGraph_x0.8c"
Using #calcEntry at line 23 in file "/home/openfoam/TurbFOAM-7-Cases/2D-Seperated-Flow-Cases-Final/NASA-Hump-Final/00Baseline/system/controlDict.functions.singleGraph_x0.8c"
Using #calcEntry at line 24 in file "/home/openfoam/TurbFOAM-7-Cases/2D-Seperated-Flow-Cases-Final/NASA-Hump-Final/00Baseline/system/controlDict.functions.singleGraph_x0.8c"
Using #calcEntry at line 25 in file "/home/openfoam/TurbFOAM-7-Cases/2D-Seperated-Flow-Cases-Final/NASA-Hump-Final/00Baseline/system/controlDict.functions.singleGraph_x0.8c"
Using #calcEntry at line 18 in file "/home/openfoam/TurbFOAM-7-Cases/2D-Seperated-Flow-Cases-Final/NASA-Hump-Final/00Baseline/system/controlDict.functions.singleGraph_x0.8c"
Using #calcEntry at line 21 in file "/home/openfoam/TurbFOAM-7-Cases/2D-Seperated-Flow-Cases-Final/NASA-Hump-Final/00Baseline/system/controlDict.functions.singleGraph_x0.8c"
Using #codeStream with "/home/openfoam/TurbFOAM-7-Cases/2D-Seperated-Flow-Cases-Final/NASA-Hump-Final/00Baseline/dynamicCode/platforms/linux64GccDPInt32Opt/lib/libcodeStream_39a58a17a0499c4ff35f1b777578157ffc2e326d.so"
Using #calcEntry at line 18 in file "/home/openfoam/TurbFOAM-7-Cases/2D-Seperated-Flow-Cases-Final/NASA-Hump-Final/00Baseline/system/controlDict.functions.singleGraph_x0.9c"
Using #calcEntry at line 19 in file "/home/openfoam/TurbFOAM-7-Cases/2D-Seperated-Flow-Cases-Final/NASA-Hump-Final/00Baseline/system/controlDict.functions.singleGraph_x0.9c"
Using #calcEntry at line 20 in file "/home/openfoam/TurbFOAM-7-Cases/2D-Seperated-Flow-Cases-Final/NASA-Hump-Final/00Baseline/system/controlDict.functions.singleGraph_x0.9c"
Using #calcEntry at line 21 in file "/home/openfoam/TurbFOAM-7-Cases/2D-Seperated-Flow-Cases-Final/NASA-Hump-Final/00Baseline/system/controlDict.functions.singleGraph_x0.9c"
Using #calcEntry at line 22 in file "/home/openfoam/TurbFOAM-7-Cases/2D-Seperated-Flow-Cases-Final/NASA-Hump-Final/00Baseline/system/controlDict.functions.singleGraph_x0.9c"
Using #calcEntry at line 23 in file "/home/openfoam/TurbFOAM-7-Cases/2D-Seperated-Flow-Cases-Final/NASA-Hump-Final/00Baseline/system/controlDict.functions.singleGraph_x0.9c"
Using #calcEntry at line 24 in file "/home/openfoam/TurbFOAM-7-Cases/2D-Seperated-Flow-Cases-Final/NASA-Hump-Final/00Baseline/system/controlDict.functions.singleGraph_x0.9c"
Using #calcEntry at line 25 in file "/home/openfoam/TurbFOAM-7-Cases/2D-Seperated-Flow-Cases-Final/NASA-Hump-Final/00Baseline/system/controlDict.functions.singleGraph_x0.9c"
Using #calcEntry at line 18 in file "/home/openfoam/TurbFOAM-7-Cases/2D-Seperated-Flow-Cases-Final/NASA-Hump-Final/00Baseline/system/controlDict.functions.singleGraph_x0.9c"
Using #calcEntry at line 21 in file "/home/openfoam/TurbFOAM-7-Cases/2D-Seperated-Flow-Cases-Final/NASA-Hump-Final/00Baseline/system/controlDict.functions.singleGraph_x0.9c"
Using #codeStream with "/home/openfoam/TurbFOAM-7-Cases/2D-Seperated-Flow-Cases-Final/NASA-Hump-Final/00Baseline/dynamicCode/platforms/linux64GccDPInt32Opt/lib/libcodeStream_872a6ba07ef1c58dbabd9230baa149db25a68a9d.so"
Using #calcEntry at line 18 in file "/home/openfoam/TurbFOAM-7-Cases/2D-Seperated-Flow-Cases-Final/NASA-Hump-Final/00Baseline/system/controlDict.functions.singleGraph_x0.65c"
Using #calcEntry at line 19 in file "/home/openfoam/TurbFOAM-7-Cases/2D-Seperated-Flow-Cases-Final/NASA-Hump-Final/00Baseline/system/controlDict.functions.singleGraph_x0.65c"
Using #calcEntry at line 20 in file "/home/openfoam/TurbFOAM-7-Cases/2D-Seperated-Flow-Cases-Final/NASA-Hump-Final/00Baseline/system/controlDict.functions.singleGraph_x0.65c"
Using #calcEntry at line 21 in file "/home/openfoam/TurbFOAM-7-Cases/2D-Seperated-Flow-Cases-Final/NASA-Hump-Final/00Baseline/system/controlDict.functions.singleGraph_x0.65c"
Using #calcEntry at line 22 in file "/home/openfoam/TurbFOAM-7-Cases/2D-Seperated-Flow-Cases-Final/NASA-Hump-Final/00Baseline/system/controlDict.functions.singleGraph_x0.65c"
Using #calcEntry at line 23 in file "/home/openfoam/TurbFOAM-7-Cases/2D-Seperated-Flow-Cases-Final/NASA-Hump-Final/00Baseline/system/controlDict.functions.singleGraph_x0.65c"
Using #calcEntry at line 24 in file "/home/openfoam/TurbFOAM-7-Cases/2D-Seperated-Flow-Cases-Final/NASA-Hump-Final/00Baseline/system/controlDict.functions.singleGraph_x0.65c"
Using #calcEntry at line 25 in file "/home/openfoam/TurbFOAM-7-Cases/2D-Seperated-Flow-Cases-Final/NASA-Hump-Final/00Baseline/system/controlDict.functions.singleGraph_x0.65c"
Using #calcEntry at line 18 in file "/home/openfoam/TurbFOAM-7-Cases/2D-Seperated-Flow-Cases-Final/NASA-Hump-Final/00Baseline/system/controlDict.functions.singleGraph_x0.65c"
Using #calcEntry at line 21 in file "/home/openfoam/TurbFOAM-7-Cases/2D-Seperated-Flow-Cases-Final/NASA-Hump-Final/00Baseline/system/controlDict.functions.singleGraph_x0.65c"
Using #codeStream with "/home/openfoam/TurbFOAM-7-Cases/2D-Seperated-Flow-Cases-Final/NASA-Hump-Final/00Baseline/dynamicCode/platforms/linux64GccDPInt32Opt/lib/libcodeStream_3160ac7836ec37a7f308c90905f407e296494e0d.so"
Using #calcEntry at line 18 in file "/home/openfoam/TurbFOAM-7-Cases/2D-Seperated-Flow-Cases-Final/NASA-Hump-Final/00Baseline/system/controlDict.functions.singleGraph_x1.0c"
Using #calcEntry at line 19 in file "/home/openfoam/TurbFOAM-7-Cases/2D-Seperated-Flow-Cases-Final/NASA-Hump-Final/00Baseline/system/controlDict.functions.singleGraph_x1.0c"
Using #calcEntry at line 20 in file "/home/openfoam/TurbFOAM-7-Cases/2D-Seperated-Flow-Cases-Final/NASA-Hump-Final/00Baseline/system/controlDict.functions.singleGraph_x1.0c"
Using #calcEntry at line 21 in file "/home/openfoam/TurbFOAM-7-Cases/2D-Seperated-Flow-Cases-Final/NASA-Hump-Final/00Baseline/system/controlDict.functions.singleGraph_x1.0c"
Using #calcEntry at line 22 in file "/home/openfoam/TurbFOAM-7-Cases/2D-Seperated-Flow-Cases-Final/NASA-Hump-Final/00Baseline/system/controlDict.functions.singleGraph_x1.0c"
Using #calcEntry at line 23 in file "/home/openfoam/TurbFOAM-7-Cases/2D-Seperated-Flow-Cases-Final/NASA-Hump-Final/00Baseline/system/controlDict.functions.singleGraph_x1.0c"
Using #calcEntry at line 24 in file "/home/openfoam/TurbFOAM-7-Cases/2D-Seperated-Flow-Cases-Final/NASA-Hump-Final/00Baseline/system/controlDict.functions.singleGraph_x1.0c"
Using #calcEntry at line 25 in file "/home/openfoam/TurbFOAM-7-Cases/2D-Seperated-Flow-Cases-Final/NASA-Hump-Final/00Baseline/system/controlDict.functions.singleGraph_x1.0c"
Using #calcEntry at line 18 in file "/home/openfoam/TurbFOAM-7-Cases/2D-Seperated-Flow-Cases-Final/NASA-Hump-Final/00Baseline/system/controlDict.functions.singleGraph_x1.0c"
Using #calcEntry at line 21 in file "/home/openfoam/TurbFOAM-7-Cases/2D-Seperated-Flow-Cases-Final/NASA-Hump-Final/00Baseline/system/controlDict.functions.singleGraph_x1.0c"
Using #codeStream with "/home/openfoam/TurbFOAM-7-Cases/2D-Seperated-Flow-Cases-Final/NASA-Hump-Final/00Baseline/dynamicCode/platforms/linux64GccDPInt32Opt/lib/libcodeStream_7beec5688313a72c327e49254bc535d75299778f.so"
Using #calcEntry at line 18 in file "/home/openfoam/TurbFOAM-7-Cases/2D-Seperated-Flow-Cases-Final/NASA-Hump-Final/00Baseline/system/controlDict.functions.singleGraph_x1.1c"
Using #calcEntry at line 19 in file "/home/openfoam/TurbFOAM-7-Cases/2D-Seperated-Flow-Cases-Final/NASA-Hump-Final/00Baseline/system/controlDict.functions.singleGraph_x1.1c"
Using #calcEntry at line 20 in file "/home/openfoam/TurbFOAM-7-Cases/2D-Seperated-Flow-Cases-Final/NASA-Hump-Final/00Baseline/system/controlDict.functions.singleGraph_x1.1c"
Using #calcEntry at line 21 in file "/home/openfoam/TurbFOAM-7-Cases/2D-Seperated-Flow-Cases-Final/NASA-Hump-Final/00Baseline/system/controlDict.functions.singleGraph_x1.1c"
Using #calcEntry at line 22 in file "/home/openfoam/TurbFOAM-7-Cases/2D-Seperated-Flow-Cases-Final/NASA-Hump-Final/00Baseline/system/controlDict.functions.singleGraph_x1.1c"
Using #calcEntry at line 23 in file "/home/openfoam/TurbFOAM-7-Cases/2D-Seperated-Flow-Cases-Final/NASA-Hump-Final/00Baseline/system/controlDict.functions.singleGraph_x1.1c"
Using #calcEntry at line 24 in file "/home/openfoam/TurbFOAM-7-Cases/2D-Seperated-Flow-Cases-Final/NASA-Hump-Final/00Baseline/system/controlDict.functions.singleGraph_x1.1c"
Using #calcEntry at line 25 in file "/home/openfoam/TurbFOAM-7-Cases/2D-Seperated-Flow-Cases-Final/NASA-Hump-Final/00Baseline/system/controlDict.functions.singleGraph_x1.1c"
Using #calcEntry at line 18 in file "/home/openfoam/TurbFOAM-7-Cases/2D-Seperated-Flow-Cases-Final/NASA-Hump-Final/00Baseline/system/controlDict.functions.singleGraph_x1.1c"
Using #calcEntry at line 21 in file "/home/openfoam/TurbFOAM-7-Cases/2D-Seperated-Flow-Cases-Final/NASA-Hump-Final/00Baseline/system/controlDict.functions.singleGraph_x1.1c"
Using #codeStream with "/home/openfoam/TurbFOAM-7-Cases/2D-Seperated-Flow-Cases-Final/NASA-Hump-Final/00Baseline/dynamicCode/platforms/linux64GccDPInt32Opt/lib/libcodeStream_cd3d6e8dddac4fa0cc2d0bb525f17cd3466230b0.so"
Using #calcEntry at line 18 in file "/home/openfoam/TurbFOAM-7-Cases/2D-Seperated-Flow-Cases-Final/NASA-Hump-Final/00Baseline/system/controlDict.functions.singleGraph_x1.2c"
Using #calcEntry at line 19 in file "/home/openfoam/TurbFOAM-7-Cases/2D-Seperated-Flow-Cases-Final/NASA-Hump-Final/00Baseline/system/controlDict.functions.singleGraph_x1.2c"
Using #calcEntry at line 20 in file "/home/openfoam/TurbFOAM-7-Cases/2D-Seperated-Flow-Cases-Final/NASA-Hump-Final/00Baseline/system/controlDict.functions.singleGraph_x1.2c"
Using #calcEntry at line 21 in file "/home/openfoam/TurbFOAM-7-Cases/2D-Seperated-Flow-Cases-Final/NASA-Hump-Final/00Baseline/system/controlDict.functions.singleGraph_x1.2c"
Using #calcEntry at line 22 in file "/home/openfoam/TurbFOAM-7-Cases/2D-Seperated-Flow-Cases-Final/NASA-Hump-Final/00Baseline/system/controlDict.functions.singleGraph_x1.2c"
Using #calcEntry at line 23 in file "/home/openfoam/TurbFOAM-7-Cases/2D-Seperated-Flow-Cases-Final/NASA-Hump-Final/00Baseline/system/controlDict.functions.singleGraph_x1.2c"
Using #calcEntry at line 24 in file "/home/openfoam/TurbFOAM-7-Cases/2D-Seperated-Flow-Cases-Final/NASA-Hump-Final/00Baseline/system/controlDict.functions.singleGraph_x1.2c"
Using #calcEntry at line 25 in file "/home/openfoam/TurbFOAM-7-Cases/2D-Seperated-Flow-Cases-Final/NASA-Hump-Final/00Baseline/system/controlDict.functions.singleGraph_x1.2c"
Using #calcEntry at line 18 in file "/home/openfoam/TurbFOAM-7-Cases/2D-Seperated-Flow-Cases-Final/NASA-Hump-Final/00Baseline/system/controlDict.functions.singleGraph_x1.2c"
Using #calcEntry at line 21 in file "/home/openfoam/TurbFOAM-7-Cases/2D-Seperated-Flow-Cases-Final/NASA-Hump-Final/00Baseline/system/controlDict.functions.singleGraph_x1.2c"
Using #codeStream with "/home/openfoam/TurbFOAM-7-Cases/2D-Seperated-Flow-Cases-Final/NASA-Hump-Final/00Baseline/dynamicCode/platforms/linux64GccDPInt32Opt/lib/libcodeStream_358ccca60f588d37fa48ad54d584688d5fb009a8.so"
Using #calcEntry at line 18 in file "/home/openfoam/TurbFOAM-7-Cases/2D-Seperated-Flow-Cases-Final/NASA-Hump-Final/00Baseline/system/controlDict.functions.singleGraph_x1.3c"
Using #calcEntry at line 19 in file "/home/openfoam/TurbFOAM-7-Cases/2D-Seperated-Flow-Cases-Final/NASA-Hump-Final/00Baseline/system/controlDict.functions.singleGraph_x1.3c"
Using #calcEntry at line 20 in file "/home/openfoam/TurbFOAM-7-Cases/2D-Seperated-Flow-Cases-Final/NASA-Hump-Final/00Baseline/system/controlDict.functions.singleGraph_x1.3c"
Using #calcEntry at line 21 in file "/home/openfoam/TurbFOAM-7-Cases/2D-Seperated-Flow-Cases-Final/NASA-Hump-Final/00Baseline/system/controlDict.functions.singleGraph_x1.3c"
Using #calcEntry at line 22 in file "/home/openfoam/TurbFOAM-7-Cases/2D-Seperated-Flow-Cases-Final/NASA-Hump-Final/00Baseline/system/controlDict.functions.singleGraph_x1.3c"
Using #calcEntry at line 23 in file "/home/openfoam/TurbFOAM-7-Cases/2D-Seperated-Flow-Cases-Final/NASA-Hump-Final/00Baseline/system/controlDict.functions.singleGraph_x1.3c"
Using #calcEntry at line 24 in file "/home/openfoam/TurbFOAM-7-Cases/2D-Seperated-Flow-Cases-Final/NASA-Hump-Final/00Baseline/system/controlDict.functions.singleGraph_x1.3c"
Using #calcEntry at line 25 in file "/home/openfoam/TurbFOAM-7-Cases/2D-Seperated-Flow-Cases-Final/NASA-Hump-Final/00Baseline/system/controlDict.functions.singleGraph_x1.3c"
Using #calcEntry at line 18 in file "/home/openfoam/TurbFOAM-7-Cases/2D-Seperated-Flow-Cases-Final/NASA-Hump-Final/00Baseline/system/controlDict.functions.singleGraph_x1.3c"
Using #calcEntry at line 21 in file "/home/openfoam/TurbFOAM-7-Cases/2D-Seperated-Flow-Cases-Final/NASA-Hump-Final/00Baseline/system/controlDict.functions.singleGraph_x1.3c"
Using #codeStream with "/home/openfoam/TurbFOAM-7-Cases/2D-Seperated-Flow-Cases-Final/NASA-Hump-Final/00Baseline/dynamicCode/platforms/linux64GccDPInt32Opt/lib/libcodeStream_4ac9cb5ff56d4972a9ef5d63a8e508fd315bd95e.so"

End

