I/O    : uncollated
Case   : /home/openfoam/TurbFOAM-7-Cases/2D-Seperated-Flow-Cases-Final/NASA-Hump-Final/00Baseline
nProcs : 1
Create time

Using #calcEntry at line 18 in file "/home/openfoam/TurbFOAM-7-Cases/2D-Seperated-Flow-Cases-Final/NASA-Hump-Final/00Baseline/system/controlDict.functions.convergenceProbes"
Using #codeStream with "/home/openfoam/TurbFOAM-7-Cases/2D-Seperated-Flow-Cases-Final/NASA-Hump-Final/00Baseline/dynamicCode/platforms/linux64GccDPInt32Opt/lib/libcodeStream_75a4f5b4ff671df38e5ba8edfbac81f9168c7d9b.so"
Using #calcEntry at line 19 in file "/home/openfoam/TurbFOAM-7-Cases/2D-Seperated-Flow-Cases-Final/NASA-Hump-Final/00Baseline/system/controlDict.functions.convergenceProbes"
Using #codeStream with "/home/openfoam/TurbFOAM-7-Cases/2D-Seperated-Flow-Cases-Final/NASA-Hump-Final/00Baseline/dynamicCode/platforms/linux64GccDPInt32Opt/lib/libcodeStream_a247f6ff1f11efb20133ca2dbfdb37ba69ba54a5.so"
Using #calcEntry at line 20 in file "/home/openfoam/TurbFOAM-7-Cases/2D-Seperated-Flow-Cases-Final/NASA-Hump-Final/00Baseline/system/controlDict.functions.convergenceProbes"
Using #codeStream with "/home/openfoam/TurbFOAM-7-Cases/2D-Seperated-Flow-Cases-Final/NASA-Hump-Final/00Baseline/dynamicCode/platforms/linux64GccDPInt32Opt/lib/libcodeStream_77a8649a24954b9328c5589cc79e5e0de849c466.so"
Using #calcEntry at line 21 in file "/home/openfoam/TurbFOAM-7-Cases/2D-Seperated-Flow-Cases-Final/NASA-Hump-Final/00Baseline/system/controlDict.functions.convergenceProbes"
Using #codeStream with "/home/openfoam/TurbFOAM-7-Cases/2D-Seperated-Flow-Cases-Final/NASA-Hump-Final/00Baseline/dynamicCode/platforms/linux64GccDPInt32Opt/lib/libcodeStream_232a85057e1ed74ae20ebcfa85e596b4eaf035d0.so"
Using #calcEntry at line 22 in file "/home/openfoam/TurbFOAM-7-Cases/2D-Seperated-Flow-Cases-Final/NASA-Hump-Final/00Baseline/system/controlDict.functions.convergenceProbes"
Using #codeStream with "/home/openfoam/TurbFOAM-7-Cases/2D-Seperated-Flow-Cases-Final/NASA-Hump-Final/00Baseline/dynamicCode/platforms/linux64GccDPInt32Opt/lib/libcodeStream_769f7a7007a4c2224a4b123ed1f3869c5af3c189.so"
Using #calcEntry at line 23 in file "/home/openfoam/TurbFOAM-7-Cases/2D-Seperated-Flow-Cases-Final/NASA-Hump-Final/00Baseline/system/controlDict.functions.convergenceProbes"
Using #codeStream with "/home/openfoam/TurbFOAM-7-Cases/2D-Seperated-Flow-Cases-Final/NASA-Hump-Final/00Baseline/dynamicCode/platforms/linux64GccDPInt32Opt/lib/libcodeStream_feb0295de68af9673848f5d3725de5945e497247.so"
Using #calcEntry at line 24 in file "/home/openfoam/TurbFOAM-7-Cases/2D-Seperated-Flow-Cases-Final/NASA-Hump-Final/00Baseline/system/controlDict.functions.convergenceProbes"
Using #codeStream with "/home/openfoam/TurbFOAM-7-Cases/2D-Seperated-Flow-Cases-Final/NASA-Hump-Final/00Baseline/dynamicCode/platforms/linux64GccDPInt32Opt/lib/libcodeStream_e87a4fde7807eb94a4592dd1a6cc678bb7867694.so"
Using #calcEntry at line 25 in file "/home/openfoam/TurbFOAM-7-Cases/2D-Seperated-Flow-Cases-Final/NASA-Hump-Final/00Baseline/system/controlDict.functions.convergenceProbes"
Using #codeStream with "/home/openfoam/TurbFOAM-7-Cases/2D-Seperated-Flow-Cases-Final/NASA-Hump-Final/00Baseline/dynamicCode/platforms/linux64GccDPInt32Opt/lib/libcodeStream_718a18ea8ad2f783ae8b52e7a11ee7eaf8c59f54.so"
Using #calcEntry at line 5 in file "/home/openfoam/TurbFOAM-7-Cases/2D-Seperated-Flow-Cases-Final/NASA-Hump-Final/00Baseline/system/controlDict.functions.convergenceProbes"
Using #codeStream with "/home/openfoam/TurbFOAM-7-Cases/2D-Seperated-Flow-Cases-Final/NASA-Hump-Final/00Baseline/dynamicCode/platforms/linux64GccDPInt32Opt/lib/libcodeStream_d6d37a5775cdea6aea37a5670db29c5e850011c8.so"
Using #calcEntry at line 8 in file "/home/openfoam/TurbFOAM-7-Cases/2D-Seperated-Flow-Cases-Final/NASA-Hump-Final/00Baseline/system/controlDict.functions.convergenceProbes"
Using #codeStream with "/home/openfoam/TurbFOAM-7-Cases/2D-Seperated-Flow-Cases-Final/NASA-Hump-Final/00Baseline/dynamicCode/platforms/linux64GccDPInt32Opt/lib/libcodeStream_5064c54646fb52c8b01562e4b46b6f0f6f9b146d.so"
Using #calcEntry at line 9 in file "/home/openfoam/TurbFOAM-7-Cases/2D-Seperated-Flow-Cases-Final/NASA-Hump-Final/00Baseline/system/controlDict.functions.convergenceProbes"
Using #codeStream with "/home/openfoam/TurbFOAM-7-Cases/2D-Seperated-Flow-Cases-Final/NASA-Hump-Final/00Baseline/dynamicCode/platforms/linux64GccDPInt32Opt/lib/libcodeStream_c12e4b926a933945fdd24a75f21bea16f524b31d.so"
Using #calcEntry at line 12 in file "/home/openfoam/TurbFOAM-7-Cases/2D-Seperated-Flow-Cases-Final/NASA-Hump-Final/00Baseline/system/controlDict.functions.convergenceProbes"
Using #codeStream with "/home/openfoam/TurbFOAM-7-Cases/2D-Seperated-Flow-Cases-Final/NASA-Hump-Final/00Baseline/dynamicCode/platforms/linux64GccDPInt32Opt/lib/libcodeStream_a76d798187388beb9c9164b04f96d59d9682a40f.so"
Using #calcEntry at line 13 in file "/home/openfoam/TurbFOAM-7-Cases/2D-Seperated-Flow-Cases-Final/NASA-Hump-Final/00Baseline/system/controlDict.functions.convergenceProbes"
Using #codeStream with "/home/openfoam/TurbFOAM-7-Cases/2D-Seperated-Flow-Cases-Final/NASA-Hump-Final/00Baseline/dynamicCode/platforms/linux64GccDPInt32Opt/lib/libcodeStream_b5a911e63cf1e3a87e11178bd86b8cba21330a81.so"
Using #calcEntry at line 16 in file "/home/openfoam/TurbFOAM-7-Cases/2D-Seperated-Flow-Cases-Final/NASA-Hump-Final/00Baseline/system/controlDict.functions.convergenceProbes"
Using #codeStream with "/home/openfoam/TurbFOAM-7-Cases/2D-Seperated-Flow-Cases-Final/NASA-Hump-Final/00Baseline/dynamicCode/platforms/linux64GccDPInt32Opt/lib/libcodeStream_1eb51ba167c6bdb0c00559636365e5dc16584c4c.so"
Using #calcEntry at line 17 in file "/home/openfoam/TurbFOAM-7-Cases/2D-Seperated-Flow-Cases-Final/NASA-Hump-Final/00Baseline/system/controlDict.functions.convergenceProbes"
Using #codeStream with "/home/openfoam/TurbFOAM-7-Cases/2D-Seperated-Flow-Cases-Final/NASA-Hump-Final/00Baseline/dynamicCode/platforms/linux64GccDPInt32Opt/lib/libcodeStream_994bdbbb6e4c67657c3e5a8effb50315a8843cd0.so"
Using #calcEntry at line 20 in file "/home/openfoam/TurbFOAM-7-Cases/2D-Seperated-Flow-Cases-Final/NASA-Hump-Final/00Baseline/system/controlDict.functions.convergenceProbes"
Using #codeStream with "/home/openfoam/TurbFOAM-7-Cases/2D-Seperated-Flow-Cases-Final/NASA-Hump-Final/00Baseline/dynamicCode/platforms/linux64GccDPInt32Opt/lib/libcodeStream_1ab17a8d0f1bf248ca0884edcfb9736a4b3df948.so"
Using #calcEntry at line 21 in file "/home/openfoam/TurbFOAM-7-Cases/2D-Seperated-Flow-Cases-Final/NASA-Hump-Final/00Baseline/system/controlDict.functions.convergenceProbes"
Using #codeStream with "/home/openfoam/TurbFOAM-7-Cases/2D-Seperated-Flow-Cases-Final/NASA-Hump-Final/00Baseline/dynamicCode/platforms/linux64GccDPInt32Opt/lib/libcodeStream_dcf0226655645c11778413395c27589c48828be1.so"
Using #calcEntry at line 18 in file "/home/openfoam/TurbFOAM-7-Cases/2D-Seperated-Flow-Cases-Final/NASA-Hump-Final/00Baseline/system/controlDict.functions.singleGraph_x0.8c"
Using #calcEntry at line 19 in file "/home/openfoam/TurbFOAM-7-Cases/2D-Seperated-Flow-Cases-Final/NASA-Hump-Final/00Baseline/system/controlDict.functions.singleGraph_x0.8c"
Using #calcEntry at line 20 in file "/home/openfoam/TurbFOAM-7-Cases/2D-Seperated-Flow-Cases-Final/NASA-Hump-Final/00Baseline/system/controlDict.functions.singleGraph_x0.8c"
Using #calcEntry at line 21 in file "/home/openfoam/TurbFOAM-7-Cases/2D-Seperated-Flow-Cases-Final/NASA-Hump-Final/00Baseline/system/controlDict.functions.singleGraph_x0.8c"
Using #calcEntry at line 22 in file "/home/openfoam/TurbFOAM-7-Cases/2D-Seperated-Flow-Cases-Final/NASA-Hump-Final/00Baseline/system/controlDict.functions.singleGraph_x0.8c"
Using #calcEntry at line 23 in file "/home/openfoam/TurbFOAM-7-Cases/2D-Seperated-Flow-Cases-Final/NASA-Hump-Final/00Baseline/system/controlDict.functions.singleGraph_x0.8c"
Using #calcEntry at line 24 in file "/home/openfoam/TurbFOAM-7-Cases/2D-Seperated-Flow-Cases-Final/NASA-Hump-Final/00Baseline/system/controlDict.functions.singleGraph_x0.8c"
Using #calcEntry at line 25 in file "/home/openfoam/TurbFOAM-7-Cases/2D-Seperated-Flow-Cases-Final/NASA-Hump-Final/00Baseline/system/controlDict.functions.singleGraph_x0.8c"
Using #calcEntry at line 18 in file "/home/openfoam/TurbFOAM-7-Cases/2D-Seperated-Flow-Cases-Final/NASA-Hump-Final/00Baseline/system/controlDict.functions.singleGraph_x0.8c"
Using #calcEntry at line 21 in file "/home/openfoam/TurbFOAM-7-Cases/2D-Seperated-Flow-Cases-Final/NASA-Hump-Final/00Baseline/system/controlDict.functions.singleGraph_x0.8c"
Using #codeStream with "/home/openfoam/TurbFOAM-7-Cases/2D-Seperated-Flow-Cases-Final/NASA-Hump-Final/00Baseline/dynamicCode/platforms/linux64GccDPInt32Opt/lib/libcodeStream_39a58a17a0499c4ff35f1b777578157ffc2e326d.so"
Using #calcEntry at line 18 in file "/home/openfoam/TurbFOAM-7-Cases/2D-Seperated-Flow-Cases-Final/NASA-Hump-Final/00Baseline/system/controlDict.functions.singleGraph_x0.9c"
Using #calcEntry at line 19 in file "/home/openfoam/TurbFOAM-7-Cases/2D-Seperated-Flow-Cases-Final/NASA-Hump-Final/00Baseline/system/controlDict.functions.singleGraph_x0.9c"
Using #calcEntry at line 20 in file "/home/openfoam/TurbFOAM-7-Cases/2D-Seperated-Flow-Cases-Final/NASA-Hump-Final/00Baseline/system/controlDict.functions.singleGraph_x0.9c"
Using #calcEntry at line 21 in file "/home/openfoam/TurbFOAM-7-Cases/2D-Seperated-Flow-Cases-Final/NASA-Hump-Final/00Baseline/system/controlDict.functions.singleGraph_x0.9c"
Using #calcEntry at line 22 in file "/home/openfoam/TurbFOAM-7-Cases/2D-Seperated-Flow-Cases-Final/NASA-Hump-Final/00Baseline/system/controlDict.functions.singleGraph_x0.9c"
Using #calcEntry at line 23 in file "/home/openfoam/TurbFOAM-7-Cases/2D-Seperated-Flow-Cases-Final/NASA-Hump-Final/00Baseline/system/controlDict.functions.singleGraph_x0.9c"
Using #calcEntry at line 24 in file "/home/openfoam/TurbFOAM-7-Cases/2D-Seperated-Flow-Cases-Final/NASA-Hump-Final/00Baseline/system/controlDict.functions.singleGraph_x0.9c"
Using #calcEntry at line 25 in file "/home/openfoam/TurbFOAM-7-Cases/2D-Seperated-Flow-Cases-Final/NASA-Hump-Final/00Baseline/system/controlDict.functions.singleGraph_x0.9c"
Using #calcEntry at line 18 in file "/home/openfoam/TurbFOAM-7-Cases/2D-Seperated-Flow-Cases-Final/NASA-Hump-Final/00Baseline/system/controlDict.functions.singleGraph_x0.9c"
Using #calcEntry at line 21 in file "/home/openfoam/TurbFOAM-7-Cases/2D-Seperated-Flow-Cases-Final/NASA-Hump-Final/00Baseline/system/controlDict.functions.singleGraph_x0.9c"
Using #codeStream with "/home/openfoam/TurbFOAM-7-Cases/2D-Seperated-Flow-Cases-Final/NASA-Hump-Final/00Baseline/dynamicCode/platforms/linux64GccDPInt32Opt/lib/libcodeStream_872a6ba07ef1c58dbabd9230baa149db25a68a9d.so"
Using #calcEntry at line 18 in file "/home/openfoam/TurbFOAM-7-Cases/2D-Seperated-Flow-Cases-Final/NASA-Hump-Final/00Baseline/system/controlDict.functions.singleGraph_x0.65c"
Using #calcEntry at line 19 in file "/home/openfoam/TurbFOAM-7-Cases/2D-Seperated-Flow-Cases-Final/NASA-Hump-Final/00Baseline/system/controlDict.functions.singleGraph_x0.65c"
Using #calcEntry at line 20 in file "/home/openfoam/TurbFOAM-7-Cases/2D-Seperated-Flow-Cases-Final/NASA-Hump-Final/00Baseline/system/controlDict.functions.singleGraph_x0.65c"
Using #calcEntry at line 21 in file "/home/openfoam/TurbFOAM-7-Cases/2D-Seperated-Flow-Cases-Final/NASA-Hump-Final/00Baseline/system/controlDict.functions.singleGraph_x0.65c"
Using #calcEntry at line 22 in file "/home/openfoam/TurbFOAM-7-Cases/2D-Seperated-Flow-Cases-Final/NASA-Hump-Final/00Baseline/system/controlDict.functions.singleGraph_x0.65c"
Using #calcEntry at line 23 in file "/home/openfoam/TurbFOAM-7-Cases/2D-Seperated-Flow-Cases-Final/NASA-Hump-Final/00Baseline/system/controlDict.functions.singleGraph_x0.65c"
Using #calcEntry at line 24 in file "/home/openfoam/TurbFOAM-7-Cases/2D-Seperated-Flow-Cases-Final/NASA-Hump-Final/00Baseline/system/controlDict.functions.singleGraph_x0.65c"
Using #calcEntry at line 25 in file "/home/openfoam/TurbFOAM-7-Cases/2D-Seperated-Flow-Cases-Final/NASA-Hump-Final/00Baseline/system/controlDict.functions.singleGraph_x0.65c"
Using #calcEntry at line 18 in file "/home/openfoam/TurbFOAM-7-Cases/2D-Seperated-Flow-Cases-Final/NASA-Hump-Final/00Baseline/system/controlDict.functions.singleGraph_x0.65c"
Using #calcEntry at line 21 in file "/home/openfoam/TurbFOAM-7-Cases/2D-Seperated-Flow-Cases-Final/NASA-Hump-Final/00Baseline/system/controlDict.functions.singleGraph_x0.65c"
Using #codeStream with "/home/openfoam/TurbFOAM-7-Cases/2D-Seperated-Flow-Cases-Final/NASA-Hump-Final/00Baseline/dynamicCode/platforms/linux64GccDPInt32Opt/lib/libcodeStream_3160ac7836ec37a7f308c90905f407e296494e0d.so"
Using #calcEntry at line 18 in file "/home/openfoam/TurbFOAM-7-Cases/2D-Seperated-Flow-Cases-Final/NASA-Hump-Final/00Baseline/system/controlDict.functions.singleGraph_x1.0c"
Using #calcEntry at line 19 in file "/home/openfoam/TurbFOAM-7-Cases/2D-Seperated-Flow-Cases-Final/NASA-Hump-Final/00Baseline/system/controlDict.functions.singleGraph_x1.0c"
Using #calcEntry at line 20 in file "/home/openfoam/TurbFOAM-7-Cases/2D-Seperated-Flow-Cases-Final/NASA-Hump-Final/00Baseline/system/controlDict.functions.singleGraph_x1.0c"
Using #calcEntry at line 21 in file "/home/openfoam/TurbFOAM-7-Cases/2D-Seperated-Flow-Cases-Final/NASA-Hump-Final/00Baseline/system/controlDict.functions.singleGraph_x1.0c"
Using #calcEntry at line 22 in file "/home/openfoam/TurbFOAM-7-Cases/2D-Seperated-Flow-Cases-Final/NASA-Hump-Final/00Baseline/system/controlDict.functions.singleGraph_x1.0c"
Using #calcEntry at line 23 in file "/home/openfoam/TurbFOAM-7-Cases/2D-Seperated-Flow-Cases-Final/NASA-Hump-Final/00Baseline/system/controlDict.functions.singleGraph_x1.0c"
Using #calcEntry at line 24 in file "/home/openfoam/TurbFOAM-7-Cases/2D-Seperated-Flow-Cases-Final/NASA-Hump-Final/00Baseline/system/controlDict.functions.singleGraph_x1.0c"
Using #calcEntry at line 25 in file "/home/openfoam/TurbFOAM-7-Cases/2D-Seperated-Flow-Cases-Final/NASA-Hump-Final/00Baseline/system/controlDict.functions.singleGraph_x1.0c"
Using #calcEntry at line 18 in file "/home/openfoam/TurbFOAM-7-Cases/2D-Seperated-Flow-Cases-Final/NASA-Hump-Final/00Baseline/system/controlDict.functions.singleGraph_x1.0c"
Using #calcEntry at line 21 in file "/home/openfoam/TurbFOAM-7-Cases/2D-Seperated-Flow-Cases-Final/NASA-Hump-Final/00Baseline/system/controlDict.functions.singleGraph_x1.0c"
Using #codeStream with "/home/openfoam/TurbFOAM-7-Cases/2D-Seperated-Flow-Cases-Final/NASA-Hump-Final/00Baseline/dynamicCode/platforms/linux64GccDPInt32Opt/lib/libcodeStream_7beec5688313a72c327e49254bc535d75299778f.so"
Using #calcEntry at line 18 in file "/home/openfoam/TurbFOAM-7-Cases/2D-Seperated-Flow-Cases-Final/NASA-Hump-Final/00Baseline/system/controlDict.functions.singleGraph_x1.1c"
Using #calcEntry at line 19 in file "/home/openfoam/TurbFOAM-7-Cases/2D-Seperated-Flow-Cases-Final/NASA-Hump-Final/00Baseline/system/controlDict.functions.singleGraph_x1.1c"
Using #calcEntry at line 20 in file "/home/openfoam/TurbFOAM-7-Cases/2D-Seperated-Flow-Cases-Final/NASA-Hump-Final/00Baseline/system/controlDict.functions.singleGraph_x1.1c"
Using #calcEntry at line 21 in file "/home/openfoam/TurbFOAM-7-Cases/2D-Seperated-Flow-Cases-Final/NASA-Hump-Final/00Baseline/system/controlDict.functions.singleGraph_x1.1c"
Using #calcEntry at line 22 in file "/home/openfoam/TurbFOAM-7-Cases/2D-Seperated-Flow-Cases-Final/NASA-Hump-Final/00Baseline/system/controlDict.functions.singleGraph_x1.1c"
Using #calcEntry at line 23 in file "/home/openfoam/TurbFOAM-7-Cases/2D-Seperated-Flow-Cases-Final/NASA-Hump-Final/00Baseline/system/controlDict.functions.singleGraph_x1.1c"
Using #calcEntry at line 24 in file "/home/openfoam/TurbFOAM-7-Cases/2D-Seperated-Flow-Cases-Final/NASA-Hump-Final/00Baseline/system/controlDict.functions.singleGraph_x1.1c"
Using #calcEntry at line 25 in file "/home/openfoam/TurbFOAM-7-Cases/2D-Seperated-Flow-Cases-Final/NASA-Hump-Final/00Baseline/system/controlDict.functions.singleGraph_x1.1c"
Using #calcEntry at line 18 in file "/home/openfoam/TurbFOAM-7-Cases/2D-Seperated-Flow-Cases-Final/NASA-Hump-Final/00Baseline/system/controlDict.functions.singleGraph_x1.1c"
Using #calcEntry at line 21 in file "/home/openfoam/TurbFOAM-7-Cases/2D-Seperated-Flow-Cases-Final/NASA-Hump-Final/00Baseline/system/controlDict.functions.singleGraph_x1.1c"
Using #codeStream with "/home/openfoam/TurbFOAM-7-Cases/2D-Seperated-Flow-Cases-Final/NASA-Hump-Final/00Baseline/dynamicCode/platforms/linux64GccDPInt32Opt/lib/libcodeStream_cd3d6e8dddac4fa0cc2d0bb525f17cd3466230b0.so"
Using #calcEntry at line 18 in file "/home/openfoam/TurbFOAM-7-Cases/2D-Seperated-Flow-Cases-Final/NASA-Hump-Final/00Baseline/system/controlDict.functions.singleGraph_x1.2c"
Using #calcEntry at line 19 in file "/home/openfoam/TurbFOAM-7-Cases/2D-Seperated-Flow-Cases-Final/NASA-Hump-Final/00Baseline/system/controlDict.functions.singleGraph_x1.2c"
Using #calcEntry at line 20 in file "/home/openfoam/TurbFOAM-7-Cases/2D-Seperated-Flow-Cases-Final/NASA-Hump-Final/00Baseline/system/controlDict.functions.singleGraph_x1.2c"
Using #calcEntry at line 21 in file "/home/openfoam/TurbFOAM-7-Cases/2D-Seperated-Flow-Cases-Final/NASA-Hump-Final/00Baseline/system/controlDict.functions.singleGraph_x1.2c"
Using #calcEntry at line 22 in file "/home/openfoam/TurbFOAM-7-Cases/2D-Seperated-Flow-Cases-Final/NASA-Hump-Final/00Baseline/system/controlDict.functions.singleGraph_x1.2c"
Using #calcEntry at line 23 in file "/home/openfoam/TurbFOAM-7-Cases/2D-Seperated-Flow-Cases-Final/NASA-Hump-Final/00Baseline/system/controlDict.functions.singleGraph_x1.2c"
Using #calcEntry at line 24 in file "/home/openfoam/TurbFOAM-7-Cases/2D-Seperated-Flow-Cases-Final/NASA-Hump-Final/00Baseline/system/controlDict.functions.singleGraph_x1.2c"
Using #calcEntry at line 25 in file "/home/openfoam/TurbFOAM-7-Cases/2D-Seperated-Flow-Cases-Final/NASA-Hump-Final/00Baseline/system/controlDict.functions.singleGraph_x1.2c"
Using #calcEntry at line 18 in file "/home/openfoam/TurbFOAM-7-Cases/2D-Seperated-Flow-Cases-Final/NASA-Hump-Final/00Baseline/system/controlDict.functions.singleGraph_x1.2c"
Using #calcEntry at line 21 in file "/home/openfoam/TurbFOAM-7-Cases/2D-Seperated-Flow-Cases-Final/NASA-Hump-Final/00Baseline/system/controlDict.functions.singleGraph_x1.2c"
Using #codeStream with "/home/openfoam/TurbFOAM-7-Cases/2D-Seperated-Flow-Cases-Final/NASA-Hump-Final/00Baseline/dynamicCode/platforms/linux64GccDPInt32Opt/lib/libcodeStream_358ccca60f588d37fa48ad54d584688d5fb009a8.so"
Using #calcEntry at line 18 in file "/home/openfoam/TurbFOAM-7-Cases/2D-Seperated-Flow-Cases-Final/NASA-Hump-Final/00Baseline/system/controlDict.functions.singleGraph_x1.3c"
Using #calcEntry at line 19 in file "/home/openfoam/TurbFOAM-7-Cases/2D-Seperated-Flow-Cases-Final/NASA-Hump-Final/00Baseline/system/controlDict.functions.singleGraph_x1.3c"
Using #calcEntry at line 20 in file "/home/openfoam/TurbFOAM-7-Cases/2D-Seperated-Flow-Cases-Final/NASA-Hump-Final/00Baseline/system/controlDict.functions.singleGraph_x1.3c"
Using #calcEntry at line 21 in file "/home/openfoam/TurbFOAM-7-Cases/2D-Seperated-Flow-Cases-Final/NASA-Hump-Final/00Baseline/system/controlDict.functions.singleGraph_x1.3c"
Using #calcEntry at line 22 in file "/home/openfoam/TurbFOAM-7-Cases/2D-Seperated-Flow-Cases-Final/NASA-Hump-Final/00Baseline/system/controlDict.functions.singleGraph_x1.3c"
Using #calcEntry at line 23 in file "/home/openfoam/TurbFOAM-7-Cases/2D-Seperated-Flow-Cases-Final/NASA-Hump-Final/00Baseline/system/controlDict.functions.singleGraph_x1.3c"
Using #calcEntry at line 24 in file "/home/openfoam/TurbFOAM-7-Cases/2D-Seperated-Flow-Cases-Final/NASA-Hump-Final/00Baseline/system/controlDict.functions.singleGraph_x1.3c"
Using #calcEntry at line 25 in file "/home/openfoam/TurbFOAM-7-Cases/2D-Seperated-Flow-Cases-Final/NASA-Hump-Final/00Baseline/system/controlDict.functions.singleGraph_x1.3c"
Using #calcEntry at line 18 in file "/home/openfoam/TurbFOAM-7-Cases/2D-Seperated-Flow-Cases-Final/NASA-Hump-Final/00Baseline/system/controlDict.functions.singleGraph_x1.3c"
Using #calcEntry at line 21 in file "/home/openfoam/TurbFOAM-7-Cases/2D-Seperated-Flow-Cases-Final/NASA-Hump-Final/00Baseline/system/controlDict.functions.singleGraph_x1.3c"
Using #codeStream with "/home/openfoam/TurbFOAM-7-Cases/2D-Seperated-Flow-Cases-Final/NASA-Hump-Final/00Baseline/dynamicCode/platforms/linux64GccDPInt32Opt/lib/libcodeStream_4ac9cb5ff56d4972a9ef5d63a8e508fd315bd95e.so"
Create mesh for time = 2000


SIMPLE: Convergence criteria found
        "(U|p|k)": tolerance 5e-07
        omega: tolerance 1e-10

Time = 2000
Reading field p

Reading field U

Reading/calculating face flux field phi

Using #calcEntry at line 18 in file "/home/openfoam/TurbFOAM-7-Cases/2D-Seperated-Flow-Cases-Final/NASA-Hump-Final/00Baseline/constant/transportProperties"
Using #calcEntry at line 19 in file "/home/openfoam/TurbFOAM-7-Cases/2D-Seperated-Flow-Cases-Final/NASA-Hump-Final/00Baseline/constant/transportProperties"
Using #calcEntry at line 20 in file "/home/openfoam/TurbFOAM-7-Cases/2D-Seperated-Flow-Cases-Final/NASA-Hump-Final/00Baseline/constant/transportProperties"
Using #calcEntry at line 21 in file "/home/openfoam/TurbFOAM-7-Cases/2D-Seperated-Flow-Cases-Final/NASA-Hump-Final/00Baseline/constant/transportProperties"
Using #calcEntry at line 22 in file "/home/openfoam/TurbFOAM-7-Cases/2D-Seperated-Flow-Cases-Final/NASA-Hump-Final/00Baseline/constant/transportProperties"
Using #calcEntry at line 23 in file "/home/openfoam/TurbFOAM-7-Cases/2D-Seperated-Flow-Cases-Final/NASA-Hump-Final/00Baseline/constant/transportProperties"
Using #calcEntry at line 24 in file "/home/openfoam/TurbFOAM-7-Cases/2D-Seperated-Flow-Cases-Final/NASA-Hump-Final/00Baseline/constant/transportProperties"
Using #calcEntry at line 25 in file "/home/openfoam/TurbFOAM-7-Cases/2D-Seperated-Flow-Cases-Final/NASA-Hump-Final/00Baseline/constant/transportProperties"
Selecting incompressible transport model Newtonian
Selecting turbulence model type RAS
Selecting RAS turbulence model AugmentedkOmegaSST
Selecting patchDistMethod meshWave
RAS
{
    RASModel        AugmentedkOmegaSST;
    turbulence      on;
    printCoeffs     on;
    omegaMin        0.1;
    baseline        true;
    alphaK1         0.85;
    alphaK2         1;
    alphaOmega1     0.5;
    alphaOmega2     0.856;
    gamma1          0.555556;
    gamma2          0.44;
    beta1           0.075;
    beta2           0.0828;
    betaStar        0.09;
    a1              0.31;
    b1              1;
    c1              10;
    F3              false;
    usekDeficit     false;
    usebijDelta     false;
    useSigma        false;
    modelbijDelta   false;
    modelkDeficit   false;
    modelSigma      false;
    bijDeltastabilizer 1;
    kDeficitstabilizer 1;
    rampStartTime   0;
    rampEndTime     100;
    xi_ramp         1;
}

No MRF models present

Creating finite volume options from "system/fvOptions"

Selecting finite volume options model type limitVelocity
    Source: limitVelocity1
    - selecting all cells
    - selected 51626 cell(s) with volume 0.236051
wallShearStress wallShearStress:
    processing all wall patches

Reading surface description:
    wallValues

In: AugmentedkOmegaSST::devRhoReff()
wallShearStress wallShearStress write:
    writing object wallShearStress
    min/max(bottom) = (-3.50075 -2.92355e-17 -1.4473), (0.87012 2.78468e-17 0.354258)


End

